350
xyz file written from pySIMM system module
C -22.5242 -15.8497 -19.1077
C -22.9149 -17.342 -19.1328
O -22.7487 -17.9042 -20.4337
H -23.0757 -18.8232 -20.3785
H -22.6517 -15.4792 -18.082
H -23.2143 -15.2728 -19.7382
H -22.3047 -17.9001 -18.4138
C -20.5849 -14.1771 -19.2781
C -21.0652 -15.6196 -19.5615
O -20.9427 -15.907 -20.9527
H -21.5157 -16.7124 -21.0749
H -20.6918 -13.9769 -18.2041
H -21.2248 -13.453 -19.7996
H -20.4233 -16.3098 -19.0014
C -18.47 -12.7028 -19.0886
C -19.1063 -13.9837 -19.6859
O -18.9969 -13.9842 -21.1071
H -19.5733 -14.752 -21.3784
H -17.3773 -12.7736 -19.1751
H -18.6844 -12.6737 -18.0123
H -18.5422 -14.8377 -19.2935
C -18.4373 -10.1507 -18.9464
C -18.945 -11.3805 -19.7401
O -18.4832 -11.3176 -21.0876
H -18.6074 -12.2531 -21.4168
H -17.3507 -10.2207 -18.8028
H -18.885 -10.1789 -17.9443
H -20.0402 -11.3606 -19.7409
C -18.447 -7.60638 -18.688
C -18.786 -8.79838 -19.614
O -18.0776 -8.66169 -20.8437
H -18.1298 -9.58182 -21.2342
H -19.0288 -7.7075 -17.7618
H -17.3886 -7.64792 -18.4002
H -19.8613 -8.78014 -19.8216
C -18.6491 -5.08577 -18.3084
C -18.7577 -6.23568 -19.3359
O -17.8787 -6.01637 -20.4438
H -17.8843 -6.93052 -20.864
H -17.6194 -4.99986 -17.9419
H -19.2703 -5.33765 -17.4391
H -19.7884 -6.26454 -19.7064
C -19.3975 -2.69392 -17.7828
C -19.1193 -3.73394 -18.8901
O -18.1099 -3.22936 -19.7678
H -18.0329 -3.94789 -20.4422
H -19.8593 -3.1756 -16.9161
H -18.4336 -2.30906 -17.4357
H -20.04 -3.90842 -19.4573
C -20.272 -0.23108 -17.4869
C -20.3386 -1.56716 -18.2806
O -21.6797 -2.04994 -18.2423
H -21.8573 -2.31823 -17.3222
H -20.9612 0.478862 -17.9643
H -20.6648 -0.384864 -16.4742
H -20.0959 -1.34056 -19.324
C -18.0775 0.381758 -18.732
C -18.8742 0.443981 -17.4002
O -18.1492 -0.126924 -16.3133
H -17.1982 0.0959395 -16.5328
H -18.6298 0.936749 -19.5011
H -18.0416 -0.650831 -19.0753
H -19.029 1.50187 -17.1616
C -15.8621 0.772919 -20.0115
C -16.6275 0.925093 -18.6706
O -15.8816 0.266654 -17.6497
H -15.4986 -0.52388 -18.1081
H -14.8108 1.05113 -19.8547
H -16.2628 1.49914 -20.7292
H -16.6733 1.99071 -18.4188
C -14.9504 -0.773181 -21.8358
C -15.9381 -0.641987 -20.6503
O -15.7195 -1.64971 -19.6587
H -16.562 -2.19289 -19.7137
H -13.9236 -0.599865 -21.486
H -15.1633 0.0407892 -22.5405
H -16.9548 -0.770009 -21.0335
C -14.2415 -3.28245 -21.9765
C -15.0178 -2.10573 -22.6291
O -16.3678 -2.44653 -22.93
H -16.3507 -3.42078 -23.0907
H -13.679 -3.80666 -22.7603
H -13.4759 -2.87864 -21.3044
H -14.5086 -1.91154 -23.5808
C -14.2872 -5.22402 -20.2853
C -15.1143 -4.32059 -21.2284
O -15.8489 -5.10263 -22.1662
H -16.5489 -5.54881 -21.6257
H -14.7321 -6.22881 -20.2663
H -13.2644 -5.34247 -20.6663
H -15.8555 -3.80891 -20.6202
C -13.4221 -5.58181 -17.8988
C -14.2639 -4.68298 -18.8349
O -13.7429 -3.35977 -18.7679
H -14.4497 -2.74039 -19.088
H -12.3741 -5.25111 -17.9135
H -13.4191 -6.61724 -18.2653
H -15.2983 -4.66055 -18.4764
C -15.1592 -6.5395 -16.3145
C -13.9754 -5.55594 -16.4562
O -12.951 -5.91098 -15.5361
H -12.2646 -5.22267 -15.6277
H -14.7927 -7.56268 -16.4776
H -15.884 -6.34783 -17.1124
H -14.3062 -4.53906 -16.2222
C -16.5475 -5.09754 -14.6863
C -15.8963 -6.47846 -14.9592
O -16.8792 -7.52005 -14.9583
H -16.3593 -8.3449 -14.8776
H -16.961 -4.69428 -15.6193
H -15.7655 -4.39834 -14.3643
H -15.1914 -6.69549 -14.1501
C -18.0232 -3.78642 -12.997
C -17.6541 -5.15761 -13.6031
O -18.8218 -5.76662 -14.1546
H -18.4447 -6.62065 -14.5006
H -17.1483 -3.39413 -12.4612
H -18.7875 -3.93619 -12.224
H -17.2942 -5.78806 -12.7826
C -19.9182 -2.18912 -13.775
C -18.5081 -2.76007 -14.0543
O -17.5794 -1.6869 -14.1221
H -17.8748 -1.10549 -14.8742
H -19.9101 -1.64254 -12.8228
H -20.1479 -1.45049 -14.5504
H -18.5275 -3.23219 -15.0407
C -22.4446 -2.55853 -13.7852
C -21.0522 -3.24523 -13.7363
O -20.9274 -4.17865 -14.8115
H -20.1741 -4.79374 -14.5615
H -22.5229 -1.93767 -14.6884
H -22.5283 -1.8767 -12.9285
H -20.9811 -3.80484 -12.797
C -25.0008 -2.85062 -13.6675
C -23.6236 -3.55951 -13.7448
O -23.5795 -4.39833 -14.898
H -22.6011 -4.53684 -15.0461
H -25.0163 -2.1996 -12.7836
H -25.1432 -2.19905 -14.5394
H -23.5092 -4.18379 -12.8519
C -27.5479 -3.19735 -13.3634
C -26.1662 -3.86367 -13.5618
O -26.2209 -4.69327 -14.7147
H -25.265 -4.77741 -14.9901
H -27.743 -2.49067 -14.1814
H -27.5467 -2.61504 -12.4329
H -25.9653 -4.50254 -12.6946
C -30.0869 -3.63338 -13.1569
C -28.6781 -4.25458 -13.3119
O -28.4181 -5.19209 -12.2641
H -27.6609 -5.71637 -12.6023
H -30.2848 -2.99145 -14.0259
H -30.1309 -2.98894 -12.2695
H -28.6907 -4.80809 -14.2563
C -32.603 -4.22349 -13.3163
C -31.1661 -4.7386 -13.0761
O -31.0923 -5.37601 -11.803
H -30.1116 -5.48588 -11.6674
H -32.6397 -3.70849 -14.2848
H -32.8712 -3.48324 -12.5515
H -30.9467 -5.4804 -13.8517
C -35.0175 -4.9998 -13.8557
C -33.6171 -5.3958 -13.3284
O -33.7302 -5.94999 -12.019
H -32.7896 -5.95142 -11.6853
H -35.6244 -5.90782 -13.9859
H -34.9073 -4.55597 -14.8548
H -33.2222 -6.16727 -13.9993
C -37.061 -3.49289 -13.5751
C -35.761 -4.01054 -12.93
O -36.0584 -4.63443 -11.6834
H -35.2753 -5.2357 -11.5302
H -37.7293 -4.33724 -13.791
H -36.8171 -3.0244 -14.5379
H -35.1124 -3.1484 -12.7464
C -38.9175 -1.71221 -13.3946
C -37.7695 -2.45092 -12.6787
O -38.2841 -3.06739 -11.5032
H -37.5691 -3.71399 -11.2542
H -39.3445 -0.983406 -12.6958
H -38.5091 -1.11279 -14.2192
H -37.0259 -1.70412 -12.3763
C -41.4403 -2.14513 -13.8009
C -40.0007 -2.68744 -13.9297
O -39.7431 -2.97078 -15.3024
H -40.3499 -3.69242 -15.5448
H -42.1264 -2.81161 -14.3402
H -41.4963 -1.16886 -14.3031
H -39.9573 -3.63615 -13.3868
C -41.942 -3.28097 -11.4754
C -41.9206 -1.98543 -12.334
O -43.2198 -1.39253 -12.3513
H -43.0821 -0.458252 -12.6011
H -40.9386 -3.71844 -11.4421
H -42.1699 -2.99869 -10.4397
H -41.2599 -1.2733 -11.831
C -42.824 -5.70027 -11.1891
C -42.9478 -4.35468 -11.9541
O -44.2758 -3.85061 -11.89
H -44.1754 -2.88964 -12.1235
H -41.8517 -6.1381 -11.454
H -43.5761 -6.40246 -11.5738
H -42.7328 -4.56512 -13.0081
C -44.1874 -4.99633 -9.04311
C -42.902 -5.62312 -9.63707
O -42.7494 -6.93367 -9.10904
H -43.6844 -7.26444 -9.03972
H -44.135 -5.02909 -7.94698
H -44.2227 -3.92795 -9.29285
H -42.0515 -5.02815 -9.29016
C -46.7629 -5.00629 -8.96046
C -45.4877 -5.68415 -9.51991
O -45.4877 -7.05759 -9.14276
H -46.4209 -7.33382 -9.34522
H -46.6491 -3.91682 -8.98106
H -46.8895 -5.26874 -7.90251
H -45.5212 -5.63726 -10.6079
C -48.085 -4.71271 -11.1428
C -48.0417 -5.38875 -9.74568
O -48.1328 -6.81051 -9.86758
H -48.8033 -6.94237 -10.5891
H -47.9753 -3.62826 -11.018
H -47.2198 -5.02941 -11.7327
H -48.9063 -5.03426 -9.17322
C -50.6588 -4.39191 -11.3872
C -49.3551 -4.98741 -11.9792
O -49.4989 -6.39121 -12.2048
H -49.029 -6.56223 -13.0451
H -51.2851 -5.19919 -10.9825
H -50.4316 -3.71986 -10.5466
H -49.1697 -4.53439 -12.9577
C -52.8622 -3.16752 -12.0922
C -51.4274 -3.60533 -12.4814
O -50.6808 -2.4329 -12.812
H -51.1291 -2.06206 -13.5922
H -52.8362 -2.63107 -11.1325
H -53.2271 -2.44896 -12.8418
H -51.4787 -4.22393 -13.3877
C -55.3084 -3.81137 -11.7699
C -53.8721 -4.33909 -11.9923
O -53.8389 -5.11849 -13.1823
H -54.1783 -5.99402 -12.916
H -55.3317 -3.14477 -10.8965
H -55.5809 -3.20413 -12.6382
H -53.5786 -4.97597 -11.1529
C -57.7897 -4.42616 -11.2644
C -56.3644 -4.93354 -11.5914
O -55.957 -5.82212 -10.5521
H -56.7336 -6.37574 -10.3382
H -57.7663 -3.80292 -10.3585
H -58.4052 -5.30315 -11.0113
H -56.425 -5.52186 -12.5148
C -60.0091 -3.61745 -12.2074
C -58.4804 -3.6577 -12.4199
O -57.9919 -2.32082 -12.4906
H -58.361 -1.94808 -13.3107
H -60.2127 -3.4549 -11.1432
H -60.4436 -2.75968 -12.7364
H -58.2624 -4.15833 -13.3698
C -62.0376 -5.18872 -11.9805
C -60.6854 -4.92051 -12.6897
O -60.8814 -4.86511 -14.0949
H -61.1574 -5.76556 -14.351
H -62.5273 -4.23921 -11.7458
H -62.7071 -5.73462 -12.6521
H -60.0014 -5.75371 -12.5081
C -63.1241 -6.23332 -9.8454
C -61.8317 -5.99872 -10.679
O -61.222 -7.25391 -10.9782
H -61.987 -7.8296 -11.2527
H -63.5138 -5.25802 -9.52533
H -62.8389 -6.77295 -8.93319
H -61.1384 -5.43093 -10.0388
C -65.3474 -7.51953 -9.56062
C -64.2686 -7.01059 -10.5555
O -63.7457 -8.12272 -11.2823
H -64.5608 -8.68048 -11.4444
H -64.9035 -8.26539 -8.89044
H -65.6561 -6.68766 -8.91424
H -64.7554 -6.32422 -11.2558
C -67.5396 -8.79398 -9.19651
C -66.6211 -8.09643 -10.2334
O -66.2842 -9.01174 -11.2785
H -67.0988 -9.06457 -11.8157
H -66.9764 -9.59661 -8.69877
H -67.8067 -8.05555 -8.42771
H -67.1667 -7.26347 -10.6927
C -69.693 -10.2082 -8.82106
C -68.8224 -9.39319 -9.82215
O -69.5991 -8.35195 -10.4333
H -70.2837 -8.80166 -10.972
H -70.5446 -10.6304 -9.35933
H -69.1106 -11.063 -8.45449
H -68.5163 -10.0992 -10.6092
C -70.9992 -10.3322 -6.6045
C -70.2298 -9.42227 -7.60392
O -71.0188 -8.31328 -8.04828
H -70.5518 -7.94059 -8.83694
H -71.3908 -11.2117 -7.13885
H -70.2769 -10.7159 -5.86504
H -69.3717 -9.01331 -7.07067
C -73.0452 -10.4427 -4.91941
C -72.1653 -9.60628 -5.88347
O -71.6829 -8.43264 -5.23475
H -71.504 -7.83243 -5.99496
H -73.7051 -9.74132 -4.39733
H -73.7123 -11.0784 -5.5135
H -72.8746 -9.27459 -6.65405
C -71.3667 -10.5888 -2.93423
C -72.3524 -11.331 -3.85259
O -71.7185 -12.4667 -4.43946
H -71.0971 -12.8057 -3.75504
H -71.8103 -9.61708 -2.66252
H -70.4319 -10.3773 -3.47663
H -73.1581 -11.6986 -3.20014
C -70.7343 -10.4859 -0.463184
C -71.0786 -11.4088 -1.65078
O -70.0522 -12.3696 -1.90634
H -69.8643 -12.8158 -1.06109
H -71.4995 -9.69706 -0.394683
H -69.7793 -9.98086 -0.673835
H -71.9909 -11.95 -1.39378
C -71.872 -12.0671 1.30066
C -70.6537 -11.205 0.902369
O -70.4241 -10.2318 1.9076
H -69.4851 -10.2867 2.16239
H -71.6613 -12.4793 2.29288
H -71.9236 -12.9365 0.634747
H -69.7789 -11.8579 0.86695
C -74.1094 -11.685 2.53307
C -73.2337 -11.3261 1.31073
O -73.9838 -11.6946 0.152082
H -73.6063 -11.2525 -0.620201
H -75.1438 -11.3814 2.33464
H -74.1271 -12.7777 2.64262
H -73.0726 -10.2486 1.29716
C -74.2527 -9.60413 4.04236
C -73.657 -11.0292 3.86806
O -74.012 -11.874 4.96106
H -73.5832 -11.4583 5.74396
H -73.6582 -8.91162 3.43767
H -75.2698 -9.58201 3.62554
H -72.5665 -10.9412 3.87082
C -74.5203 -7.53451 5.55615
C -74.3363 -9.07012 5.50383
O -73.1841 -9.44484 6.26205
H -73.2686 -9.0059 7.12999
H -74.9913 -7.16142 4.63758
H -73.5662 -7.00352 5.65801
H -75.2126 -9.51731 5.98679
