343
xyz file written from pySIMM system module
C -26.056612722260738 -15.46948028291057 -18.53810905088488
C -26.85565345843432 -16.726855861661058 -18.938702380705877
O -26.42091532253958 -17.242803668385612 -20.196170417649512
H -27.06855742307358 -17.927240055377435 -20.454282606004675
H -26.441204321812823 -15.106266322427148 -17.576232348565963
H -26.234766681667978 -14.670117183765665 -19.268784917786867
H -26.749664459180117 -17.500124074426566 -18.169769286631023
C -23.777987081074677 -14.544561383674722 -17.811004473010577
C -24.54194581589364 -15.747461355341647 -18.413561565457023
O -24.000451293302284 -16.077243948258946 -19.69082245635297
H -24.714331851770332 -16.629083116483457 -20.113801664653586
H -24.184533894214514 -14.33941972555547 -16.811978668123665
H -23.95282883833299 -13.642465083570329 -18.41270565736771
H -24.408265127093777 -16.604633407140717 -17.744015422867456
C -21.521152971353658 -13.858118387378703 -16.753621735286966
C -22.262250352902615 -14.832735382723747 -17.701619432249288
O -21.677094144097182 -14.808886147900642 -19.001510779745225
H -22.311554022773905 -15.360289884658922 -19.53823169552784
H -20.538996809841485 -14.27980576259074 -16.500121021302853
H -22.073643930319307 -13.79679463333986 -15.806557134823086
H -22.14850708646985 -15.838847933358739 -17.284192918002816
C -20.849474917039352 -11.45052665159935 -16.24728584365029
C -21.331891492401994 -12.437380861330148 -17.33320025857993
O -20.39869786885156 -12.473576298228917 -18.40908360323795
H -20.676813758374532 -13.288341818150798 -18.914074681912894
H -19.964125800928475 -11.847675580633624 -15.732581529729554
H -21.63769921420413 -11.35902914848284 -15.488147500340895
H -22.2939498952524 -12.076898154385344 -17.713586466924397
C -20.412361647418123 -8.99486119524898 -15.714364821350953
C -20.539255142312282 -10.054302357605689 -16.825548260058444
O -19.335443277668617 -10.092569832696576 -17.589666349684197
H -19.4537747297589 -10.926597822989475 -18.12749568028471
H -21.334942297237674 -9.001929163882933 -15.118703198952863
H -19.591244882428818 -9.247852583735046 -15.029299747357692
H -21.366622662007796 -9.76135316320246 -17.481903199745346
C -20.481398935897158 -6.491709366805042 -15.280460550160608
C -20.19929168255962 -7.592783322293182 -16.318061664346622
O -18.86969403160205 -7.488244424911552 -16.83664391963727
H -18.770744103889154 -8.379633701623082 -17.279493069088083
H -19.765908065302057 -6.546539534101943 -14.45579421954606
H -21.47399384027625 -6.668689188829741 -14.84574617451062
H -20.90942427864626 -7.46834971816565 -17.142395616176266
C -20.929748420795995 -4.023946429728748 -14.88618775654743
C -20.466130551961783 -5.0860240877524685 -15.905195720218208
O -19.151620227806188 -4.775592430128177 -16.36941738454788
H -18.85352117559753 -5.652104096320034 -16.738701372965835
H -21.27811870415455 -4.5145433996758015 -13.972805706827023
H -20.061962684760854 -3.432917976253683 -14.583177486891753
H -21.14278956853809 -5.09966796348829 -16.766185081326043
C -22.219060443538666 -1.7143144656266287 -14.919627828452116
C -22.07241526120363 -3.158066726340021 -15.472117557028938
O -23.297607243579037 -3.8592917709177876 -15.270726660561547
H -23.38719756173193 -3.9958784725172602 -14.29574453362822
H -22.940198100063935 -1.1888782173451506 -15.559786597300231
H -22.67759190334666 -1.741832763304041 -13.926166327608069
H -21.90519018957887 -3.0579277726502 -16.54999373979485
C -20.034637243653766 -0.9994647162078802 -16.140098397355985
C -20.924415905983114 -0.8584664886044404 -14.870320916111305
O -20.21664859046303 -1.1477517357687521 -13.665232382909457
H -19.27869336826872 -0.8645838455251731 -13.872916872203724
H -20.596034236639603 -0.6086656072116483 -16.99855240467042
H -19.849370267141023 -2.050828070222983 -16.36402520514804
H -21.228306303906876 0.19228745349600462 -14.808395967906916
C -17.799337310710193 -0.4683240622038447 -17.330865156820927
C -18.673609042161427 -0.26454871905537036 -16.067175274329976
O -17.92796013663404 -0.674278976512424 -14.922058356364836
H -17.41336905131352 -1.4593178926155073 -15.243720547354608
H -16.84361050516241 0.05073291837095795 -17.17603078055395
H -18.280033370706718 0.03987615399992528 -18.176377006622133
H -18.87992819550189 0.8064955327091923 -15.96682669323903
C -16.361619455575237 -2.0062144214707747 -18.757227131180862
C -17.528456359344595 -1.946445383238852 -17.7375412324499
O -17.26754193353543 -2.755864388094987 -16.585712431376415
H -18.002706135938837 -3.4436691734047358 -16.601120961792244
H -15.466377680536073 -1.5429257844873963 -18.32038384913706
H -16.631657985401514 -1.3770021457110087 -19.615814776353137
H -18.43689706490085 -2.3325848360572303 -18.210592823151785
C -15.163430714706909 -4.278753350107381 -18.312386531541456
C -15.990219018229038 -3.409183330861004 -19.300485738497343
O -17.148534017462715 -4.076462450086616 -19.78983779948797
H -16.874246179540457 -5.021502218354533 -19.861905325878563
H -14.28706038177511 -4.674200211433754 -18.843112891753698
H -14.74948122243504 -3.637353946242304 -17.52547680827621
H -15.3322797663314 -3.232271322841555 -20.159363950021476
C -15.22389127270526 -6.06902369540528 -16.451668629312998
C -15.935101970438271 -5.466165090294111 -17.686099662491255
O -16.147751400030984 -6.473628440948432 -18.675556001690847
H -16.725994259688076 -7.140759362957552 -18.25342026741232
H -15.424092054768504 -7.149333002958178 -16.419381993132664
H -14.134336611568823 -5.953416018908996 -16.530808982679588
H -16.920575132837513 -5.126840304480757 -17.367173078582738
C -15.162064769082342 -6.150516492981547 -13.885935048562077
C -15.73958955456511 -5.443927823913653 -15.13364842706611
O -15.417246266952521 -4.061339431119102 -15.050573575029635
H -16.068853038263306 -3.5732249560148928 -15.620095729801237
H -14.193067532621068 -5.701833526434688 -13.62595970115175
H -14.963691142298 -7.208862987115134 -14.10065091325674
H -16.82960913917125 -5.543059953203938 -15.125311394175547
C -17.25902186689034 -7.110695477893024 -12.812734528208576
C -16.14198573344606 -6.047444431223415 -12.696822499773948
O -15.44062267285706 -6.22258548118228 -11.47320890886359
H -14.806136480879445 -5.481968984654161 -11.429538011687498
H -16.808500327245834 -8.11112087058433 -12.748026599986492
H -17.710045020343784 -7.052276848295851 -13.808951928560978
H -16.582026072422956 -5.044793822616536 -12.696224893416677
C -18.962326375230017 -5.580413321100139 -11.564202092718393
C -18.37265814371752 -7.006019333767549 -11.74464744009941
O -19.399232924136626 -7.941053643675702 -12.099570811409425
H -18.95275144205812 -8.811262878975906 -12.100102750516765
H -19.173060269345548 -5.12694503738965 -12.542697116486817
H -18.20577785899401 -4.949943427673337 -11.078659760821882
H -17.960190479467233 -7.321221398165679 -10.780680960107984
C -20.59385885093938 -4.211890784976776 -10.080813253327943
C -20.238548584299558 -5.588225166910361 -10.687791624876578
O -21.325746096780513 -6.100041623671828 -11.45926946217546
H -20.9317691045635 -6.953345789513398 -11.791042351605945
H -19.733260881164167 -3.853495767777275 -9.499594158609485
H -21.39712383338195 -4.343800096055072 -9.345971888384195
H -20.061005329003233 -6.269134806659025 -9.848160423100385
C -22.468400119501524 -2.677875370738148 -11.006077745965445
C -21.002203332466117 -3.1555938585024035 -11.137813838723934
O -20.140175286883032 -2.030472833691656 -11.04994144170973
H -20.19275570868331 -1.6028552746902651 -11.94732549688176
H -22.604900196725275 -2.2197057382327756 -10.017134331624767
H -22.652294395383993 -1.8770789788991875 -11.731470201202853
H -20.865104540027804 -3.5733047908150954 -12.134557581186574
C -24.955317623837175 -3.180467955326653 -11.179320207693454
C -23.535977417308064 -3.786787091858428 -11.186085767925954
O -23.33699290341746 -4.518266103596983 -12.397235456700102
H -22.596962895975018 -5.154826773275755 -12.15830192639754
H -25.108167575376985 -2.5788255477087327 -12.086138957869029
H -25.03532727148547 -2.4904944734919185 -10.329001202467733
H -23.459263702041092 -4.4841038464279 -10.345871093163225
C -27.457113030281256 -3.5512621924944305 -10.976780759737105
C -26.074528752517047 -4.239602296898344 -11.052685473348483
O -26.042841160019115 -5.1419639314866235 -12.158110381202857
H -25.09559706019266 -5.142219002188328 -12.45388773037434
H -27.43963012979386 -2.8130791655385847 -10.16425557433984
H -27.63446012391854 -2.989627378007752 -11.904002757715439
H -25.909013436910335 -4.807670425211242 -10.129619375013867
C -29.9646781271054 -3.7568949230972124 -10.545715607707663
C -28.62988166333646 -4.526355707753113 -10.728942546738619
O -28.737422539049224 -5.474835796383648 -11.787892602936907
H -27.800036164277387 -5.597496937250594 -12.10387711033138
H -30.002527790797124 -2.9122858706164108 -11.247095940641167
H -29.98635398164071 -3.322228988322085 -9.538304002416055
H -28.42584995379861 -5.079284778803609 -9.804919189950322
C -32.52026189870175 -3.909978280966037 -10.302657956322188
C -31.227052848491027 -4.62153494257239 -10.771279743883031
O -31.083019215659505 -5.890822664604367 -10.138730234901926
H -30.300642936049062 -6.270822002356402 -10.611164040223834
H -32.565498864219904 -2.9188855672349545 -10.774008780804188
H -32.49113228369423 -3.7439540703947367 -9.21615698207795
H -31.32387092992068 -4.800590863262047 -11.847445533329186
C -35.09763141575288 -3.9360559507209194 -10.414612088518165
C -33.7857954007639 -4.713081925158287 -10.686076920176902
O -33.79536419963736 -5.9425250423369835 -9.967623741667644
H -32.8287678480994 -6.187928654236507 -9.914081791197276
H -35.07467795859486 -2.9939404403892365 -10.977579231428795
H -35.14971156758991 -3.6633017643369232 -9.354012002908775
H -33.733016103085134 -4.93220391664474 -11.758324274374406
C -37.66845729714443 -3.9212148384009597 -10.805977734624832
C -36.35515451799766 -4.745108745321704 -10.829743685568216
O -36.500555984973786 -5.888141024763662 -9.990261612171222
H -35.56695267121762 -6.2289271713623 -9.896109422446436
H -38.47454892801755 -4.513472453857807 -11.261555060190622
H -37.542732135532034 -3.036312298983448 -11.444520089891876
H -36.2010417087888 -5.086635321900073 -11.860300549369729
C -39.26511274356801 -2.475946094341397 -9.41534611811009
C -38.09367213387294 -3.4770560322392963 -9.38567525362475
O -38.455731098373725 -4.609536808833199 -8.598785333197569
H -37.81944312778004 -5.316859348414571 -8.90035665722877
H -40.16191272005166 -2.9621597925070424 -9.820922907257371
H -39.01155945999925 -1.6513721791246958 -10.0914016489178
H -37.24096395584325 -2.9788238119862074 -8.914433874050589
C -40.451893147031164 -0.6498573455686705 -7.993316999012494
C -39.5475297448359 -1.90372524827964 -8.007283004919767
O -40.12031032212388 -2.9084807802071024 -7.180323597607168
H -39.60565986678843 -3.7250604723234217 -7.4198858134222485
H -40.59027894542934 -0.34491053112151704 -6.948536839763557
H -39.923341509274564 0.1838159077372774 -8.47616487665833
H -38.58567902491431 -1.613464816252721 -7.567465037817604
C -42.94731622797026 0.044772158617557345 -8.165827807457736
C -41.818857764815625 -0.8761662344593883 -8.68735011099954
O -41.67998450291314 -0.6343706595643601 -10.085315635284651
H -42.46666691783485 -1.0218880005590147 -10.507096180688746
H -43.84140398542042 -0.11874367386394624 -8.782138033322624
H -42.657560962370724 1.092132818505907 -8.322515854786118
H -42.13752006529599 -1.9135041640406003 -8.551826614495345
C -43.591722732268096 -1.600076837303547 -6.2145596818952935
C -43.32333470592263 -0.14206823245175038 -6.671828777169079
O -44.47448331279672 0.6595667921924004 -6.399556776853937
H -44.16567723425002 1.5852694768517974 -6.429540863749967
H -42.66894167444182 -2.1846546040996984 -6.305969111849947
H -43.83080915240473 -1.5888552946752421 -5.144416962120362
H -42.50563281123502 0.25238928467177324 -6.058131646159795
C -44.85866426289339 -3.8125591922287256 -6.652324272881794
C -44.72855390917556 -2.305780351289895 -6.9889969779745265
O -45.9625455859054 -1.6263845255435685 -6.7891896865161305
H -45.693228211790654 -0.6810268024486748 -6.655285178060365
H -43.925060896745826 -4.301042378998897 -6.966617751911814
H -45.644696724007645 -4.252073765703503 -7.279101489903882
H -44.48784412209346 -2.244802849906091 -8.055589666271182
C -46.422221474468465 -3.6320016861323006 -4.53054089960265
C -45.11133289695114 -4.173871602391115 -5.16061228539023
O -45.095788514495936 -5.590743329734699 -5.024109280190695
H -46.052103347182 -5.8451359279476 -5.113716293080965
H -46.497243857040516 -3.996499856030291 -3.4951984556478823
H -46.37233336713308 -2.5403447530989753 -4.448762373651368
H -44.27275710858828 -3.78511490158166 -4.57231281679676
C -48.96480921626137 -3.3344871853198934 -4.7682175646137
C -47.69885580422896 -4.052882194030427 -5.296723884370893
O -47.84810880179567 -5.4677327418056585 -5.1849560438376034
H -48.835439001967785 -5.607410567884031 -5.1671661385513
H -48.84563052571465 -2.25024278632414 -4.881427780433259
H -49.07707609543057 -3.5168043054081957 -3.6919307368747774
H -47.59226031771816 -3.7967048961487047 -6.352652435128729
C -50.22794519162585 -3.569234322502864 -7.022540651534568
C -50.26807691936018 -3.7568600197933795 -5.486353006406112
O -50.54071213697893 -5.124131343544973 -5.194879680936117
H -51.250313694633334 -5.352339137786853 -5.854739099313775
H -49.79027081326737 -2.5953418489420446 -7.276578308920462
H -49.54768616030831 -4.3107720602490325 -7.466923827081533
H -51.0827734056476 -3.147414110950233 -5.08265817732689
C -52.69937586440592 -2.6777467119066984 -7.31977868391839
C -51.623879602836695 -3.735240311118459 -7.683746771773328
O -52.147377775457706 -5.031865005235323 -7.380737349529047
H -52.92783471747024 -5.133405114085754 -7.956727512603974
H -53.64544543044269 -3.0485898524012507 -7.734319153555727
H -52.86498049600387 -2.610370543506784 -6.23484122326683
H -51.479359354815685 -3.695152783766099 -8.769444340603028
C -53.58284077421544 -0.32314746902934033 -8.032484092538686
C -52.375689198817696 -1.283729536029953 -7.917387375941028
O -51.38788261167005 -0.6337313175659833 -7.1231754168385555
H -51.10592179411869 0.14912862945709016 -7.628304921334974
H -53.88919875020566 -0.008356996947664896 -7.0252675973730385
H -53.240200074548035 0.5910877786302224 -8.537294396383894
H -51.96903326796874 -1.4348908551546238 -8.92245989029303
C -55.673507971799864 0.247618557059897 -9.392427362130034
C -54.81858282304455 -0.8861388909851842 -8.781343579798996
O -54.438025042503355 -1.7848141129187862 -9.81736341322505
H -55.26099192303238 -1.8711075395283654 -10.365865553308666
H -55.82002314452926 1.04386945368082 -8.648145410051082
H -55.11713678230437 0.7068900628870107 -10.2200758714833
H -55.419577402764034 -1.428787801407096 -8.045162135272099
C -58.02174987828302 -0.5876227229879349 -8.774306017780551
C -57.05684100765 -0.20296966087706458 -9.918680244195336
O -56.9307975348289 -1.2793269778537697 -10.847039760573502
H -57.73681361146848 -1.2099617037915964 -11.397622658376202
H -58.01626058509329 0.19669752326119916 -8.006127791465861
H -57.67185038802748 -1.5098185961296462 -8.286830011828135
H -57.46835138236929 0.6526924911189305 -10.458085892608455
C -60.459634638104845 -1.0827669990567683 -8.125368978695082
C -59.466536139992414 -0.7977258949772867 -9.27721580572646
O -59.90178952686177 0.3456950914239423 -10.005048270375426
H -60.89156246007353 0.2689765431824718 -10.0046616528691
H -60.02803715703589 -1.8134249530129773 -7.428663975905728
H -60.6357611495704 -0.16677812706190576 -7.547368167795309
H -59.46478478740491 -1.6653523403081554 -9.949038912077103
C -62.76964700395791 -2.162775146236731 -7.621632186229957
C -61.79500921399358 -1.6148847751316504 -8.693835577254152
O -62.434107129717184 -0.5862159445532837 -9.448450221635165
H -63.13174573295842 -1.0294188327129694 -9.971096776865878
H -62.732176413592214 -1.5429842250171246 -6.715003751405964
H -63.78516332983647 -2.0815707191089494 -8.026976865840973
H -61.55807265983023 -2.4206603931019286 -9.394045048545294
C -63.46434157568478 -4.265426197402812 -6.226447377165794
C -62.47776448166142 -3.6442739210835082 -7.255099433388773
O -62.48905236468543 -4.447933620193184 -8.435244922989016
H -61.86160186037711 -5.181458270270253 -8.267284134491977
H -63.35357601815949 -3.750402099989456 -5.2636166530768325
H -63.1901068119566 -5.313979240202928 -6.040363496086369
H -61.47029457259373 -3.6937614194731685 -6.827726680599964
C -65.94904887182629 -4.727741168766553 -5.6288440399478255
C -64.94946437097491 -4.19518123982842 -6.6771164874284965
O -65.1226143668511 -4.910020290810671 -7.90644302814861
H -64.28482233668964 -4.753981676304662 -8.413495626486288
H -65.83664089745528 -5.816306811532072 -5.542487238893646
H -65.69198157429008 -4.317731709676633 -4.6431332129837415
H -65.19970434056569 -3.142070707760295 -6.8363382754048825
C -68.43025987838338 -5.45811150857377 -5.522581252153342
C -67.43143481291395 -4.355679441226849 -5.954701630723019
O -67.61985257891766 -4.056827129151285 -7.333971107446572
H -66.86233417758227 -4.504775145029113 -7.800992831041318
H -68.05673170672871 -6.429472132143639 -5.865300713022252
H -68.44004756839328 -5.506705606495709 -4.424637064650436
H -67.65747678661431 -3.439612165625798 -5.393467869444784
C -70.76182537342439 -6.5045910317637095 -5.962310449248942
C -69.86980570972165 -5.256718743008545 -6.095039281928989
O -70.51689694298665 -4.136025212258264 -5.498319230006762
H -70.04861414303494 -3.3598115312566605 -5.865814713918232
H -71.71918738031647 -6.318368505450287 -6.465018255487322
H -70.29882274638574 -7.3217813690422195 -6.531477806020156
H -69.80656315393534 -5.073519992747727 -7.173939717344829
C -71.21772068688792 -8.476147322864279 -4.4020243363248595
C -71.02355923071127 -6.94974671987312 -4.518121787302874
O -72.13883674375728 -6.228184793612611 -4.022142135033622
H -72.05094465164586 -5.3338228066809545 -4.430645998511005
H -70.36736583478279 -8.98996024929571 -4.874675319750529
H -71.14951899145592 -8.733973966950838 -3.338968735549779
H -70.15337977020127 -6.701853024706729 -3.904723953264237
C -72.63085996818062 -9.359668434068752 -6.480965566307935
C -72.57293770665382 -9.011351487604617 -4.966669031138715
O -72.96927400520772 -10.130954539427044 -4.190870484608434
H -73.15554619637282 -9.77796821242616 -3.298767758601513
H -73.68596425761636 -9.361062472660095 -6.773408133439861
H -72.1984417839907 -8.536841807230612 -7.04922228307252
H -73.3324984528971 -8.241163879715996 -4.799539017612772
C -72.7876054521376 -11.973427378251333 -6.671408247880781
C -71.98603862180296 -10.68313252443302 -6.996974948753635
O -70.61555673832245 -10.782699593930257 -6.647036574574011
H -70.59067370135679 -10.988737772274499 -5.695967484793487
H -73.77862192357387 -11.875999255239112 -7.130625009539507
H -72.9828135517333 -12.075563063954089 -5.604152008939882
H -72.00198091127825 -10.594876832295363 -8.08882059545082
C -71.022745402353 -13.810412480010832 -6.202780644566701
C -72.12064402400595 -13.289978304696795 -7.160408095999538
O -71.65221414325524 -13.173345618003914 -8.50517421812437
H -71.10871782972981 -12.36057169302195 -8.539625837153153
H -71.31180278468575 -13.547332419600679 -5.1848383075291276
H -70.06983977058766 -13.32126206836474 -6.408268288322651
H -72.9238226775341 -14.029785028582609 -7.158776590542997
C -70.14199616515057 -15.984540576308232 -5.05580182520796
C -70.85700244314964 -15.347109065941316 -6.285134055328549
O -70.19472097859278 -15.739662368800413 -7.485141062024266
H -70.80119579557947 -15.513429783089906 -8.217519143020478
H -70.3545688838541 -17.06629532289244 -5.067291277132613
H -70.57679164792413 -15.593500368604294 -4.120209149884682
H -71.8639680350116 -15.780116630563118 -6.30423054156036
C -67.97302074507526 -16.59091167294142 -3.839218108287083
C -68.60345973916716 -15.789849038682084 -5.002653584418819
O -68.30304790489716 -14.417585207814644 -4.82216655462568
H -68.03513110536288 -14.10270355983446 -5.70848862159265
H -68.29434990183242 -16.16059040011139 -2.8951136303993437
H -68.34294380809749 -17.62027257194906 -3.854743681978161
H -68.1570547989549 -16.11358824392358 -5.945393928280109
C -65.8290236009409 -17.324905807261715 -2.655938258747228
C -66.42529105642029 -16.593401895670734 -3.875094273727764
O -65.95594953761454 -17.206342799251004 -5.077045935128221
H -64.99569533896272 -17.0515612976291 -5.13773592464228
H -64.74936144454415 -17.496293678585953 -2.7678266728376766
H -66.31846213152286 -18.291670530507474 -2.508205164386762
H -66.06314943214538 -15.561646679870528 -3.842592865502903
