750
xyz file written from pySIMM system module
C 1.5704 8.23818 92.5086
C 0.74432 9.50003 92.8897
H 2.51505 8.5664 92.0657
H 1.03043 7.7164 91.7087
C -0.0681144 10.0777 91.7005
C 1.55011 10.5621 93.6608
H 0.599247 10.4847 90.9299
H -0.728584 10.8844 92.0439
H -0.698662 9.30406 91.2432
O 0.937781 10.8811 94.8396
C 1.56823 11.8353 95.7157
H 2.56019 11.4794 96.0259
H 0.953185 11.9839 96.6122
H 1.6877 12.8022 95.2089
O 2.62715 11.0093 93.3018
C 2.15411 5.78862 93.1497
C 1.80451 7.22989 93.6875
H 1.87795 5.08413 93.9465
H 1.44472 5.56645 92.3411
C 2.92026 7.77048 94.6455
C 0.42682 7.06957 94.4117
H 2.61186 8.68765 95.1592
H 3.85124 8.00253 94.1152
H 3.14204 7.0445 95.4394
O 0.460268 7.3715 95.7468
C -0.759687 7.32989 96.5112
H -1.22202 6.33488 96.4555
H -1.47433 8.06956 96.1272
H -0.548842 7.56122 97.5627
O -0.597506 6.74876 93.8281
C 3.41131 3.94221 92.0105
C 3.59636 5.36917 92.6594
H 2.86272 4.10111 91.0814
H 2.69101 3.39166 92.6317
C 4.08018 6.3683 91.5536
C 4.54145 5.28096 93.8965
H 4.29867 7.35588 91.9721
H 3.32771 6.48636 90.7637
H 5.00846 6.05042 91.0748
O 5.69125 6.01288 93.7656
C 6.63015 6.03555 94.8576
H 6.99891 5.02315 95.0709
H 6.15258 6.43237 95.7631
H 7.48525 6.67502 94.6065
O 4.26632 4.65287 94.9068
C 4.09862 1.76385 90.8277
C 4.61182 2.93887 91.7597
H 4.66392 0.862126 91.1017
H 3.07456 1.53358 91.1534
C 5.90112 3.6123 91.1726
C 4.92259 2.24484 93.1322
H 5.75592 4.07249 90.1928
H 6.70617 2.87287 91.0734
H 6.29864 4.3823 91.8428
O 6.13446 2.59195 93.6729
C 6.5093 2.03993 94.9493
H 5.76433 2.30296 95.714
H 7.48487 2.435 95.258
H 6.57763 0.9458 94.8881
O 4.15176 1.47057 93.6805
C 3.19642 0.591676 88.8054
C 4.09902 1.82091 89.2428
H 3.42183 -0.250961 89.4704
H 2.17943 0.895668 89.066
C 3.41998 3.15149 88.7552
C 5.56439 1.66104 88.7224
H 2.36677 3.19545 89.0606
H 3.44539 3.27047 87.6707
H 3.91972 4.04255 89.1402
O 5.75562 2.21519 87.4856
C 7.04665 2.10692 86.8553
H 7.03462 2.60172 85.8757
H 7.31153 1.05241 86.7065
H 7.81953 2.57777 87.4771
O 6.45882 1.09147 89.331
C 1.87085 -0.954069 87.1734
C 3.113 0.0138181 87.3352
H 0.965275 -0.334057 87.1718
H 1.9595 -1.35098 86.1553
C 2.81526 1.1503 86.3044
C 4.4084 -0.732345 86.8725
H 3.69171 1.78112 86.1271
H 1.97405 1.77872 86.6236
H 2.55628 0.730391 85.3222
O 5.22429 -1.11773 87.8985
C 6.44983 -1.81765 87.6077
H 7.00356 -2.01232 88.5353
H 7.08619 -1.21667 86.946
H 6.23817 -2.77585 87.1154
O 4.65804 -0.987785 85.7043
C 0.566684 -3.18083 87.3812
C 1.57147 -2.19399 88.1042
H 1.12091 -3.66011 86.5622
H 0.363377 -4.0 88.0846
C 2.86713 -3.03937 88.3217
C 0.986429 -1.78472 89.4973
H 3.38666 -3.2414 87.3758
H 2.63332 -4.01293 88.7735
H 3.55804 -2.54651 89.0143
O 0.933282 -2.83696 90.3742
C 0.405121 -2.62109 91.699
H -0.634793 -2.27008 91.6496
H 1.00103 -1.86802 92.2316
H 0.432026 -3.55548 92.2733
O 0.551092 -0.680723 89.7815
C -1.56038 -4.06689 86.381
C -0.828523 -2.7245 86.7853
H -1.89371 -4.51657 87.3256
H -0.797268 -4.76323 86.0092
C -1.6485 -2.00837 87.9131
C -0.597812 -1.84391 85.5197
H -1.24246 -1.01556 88.1347
H -1.6606 -2.59738 88.8393
H -2.69035 -1.8312 87.6422
O -1.26749 -0.651096 85.5456
C -1.16626 0.226668 84.408
H -0.118047 0.491405 84.2134
H -1.73369 1.14761 84.591
H -1.5742 -0.263403 83.5138
O 0.137065 -2.17521 84.6028
C -3.26538 -5.64865 85.4393
C -2.76086 -4.14574 85.3459
H -3.24735 -5.95584 86.4836
H -2.45783 -6.25467 85.0084
C -3.87658 -3.12202 85.7182
C -2.24352 -3.85257 83.8977
H -4.69807 -3.13951 84.9964
H -3.50072 -2.09457 85.6639
H -4.28042 -3.29418 86.7219
O -1.27033 -4.72501 83.4876
C -0.649652 -4.51625 82.2037
H -0.158703 -3.53275 82.1724
H -1.39877 -4.55894 81.4023
H 0.106096 -5.28961 82.0187
O -2.65294 -2.93774 83.1974
C -5.95527 -5.78609 85.5394
C -4.60873 -6.19812 84.8002
H -5.95788 -4.702 85.6393
H -6.77341 -5.97415 84.8309
C -4.71082 -5.65822 83.3359
C -4.50713 -7.75848 84.7175
H -3.80821 -5.90163 82.7593
H -4.8675 -4.57497 83.2924
H -5.55481 -6.11935 82.8045
O -3.74365 -8.31196 85.7155
C -3.56772 -9.7412 85.7717
H -3.08873 -10.1083 84.8537
H -4.53642 -10.2448 85.8857
H -2.93556 -10.0068 86.6283
O -5.08409 -8.4396 83.884
C -7.67247 -5.53313 87.4044
C -6.43039 -6.39756 86.9271
H -8.50175 -5.81949 86.744
H -7.48883 -4.48384 87.1391
C -6.94702 -7.86171 86.6607
C -5.27999 -6.29617 87.9677
H -7.62969 -7.89567 85.8011
H -7.49011 -8.29453 87.5003
H -6.14196 -8.57123 86.4675
O -4.92155 -7.49883 88.5121
C -3.81917 -7.53797 89.436
H -3.97182 -6.81415 90.2471
H -2.8831 -7.2888 88.9196
H -3.72558 -8.54039 89.8711
O -4.73203 -5.24554 88.2649
C -8.28727 -6.92612 89.563
C -8.21648 -5.50223 88.8996
H -8.95505 -7.52604 88.9335
H -7.30362 -7.39015 89.4612
C -7.31595 -4.56492 89.7698
C -9.65457 -4.89651 88.7831
H -6.38877 -5.04816 90.0936
H -7.84273 -4.23822 90.676
H -7.04848 -3.64833 89.2271
O -10.5509 -5.76159 88.21
C -11.9292 -5.36655 88.0723
H -12.3647 -5.14322 89.0556
H -12.5077 -6.1775 87.6123
H -12.0137 -4.47336 87.44
O -9.96194 -3.77018 89.1418
C -8.87562 -8.71147 91.1961
C -8.7117 -7.147 91.0713
H -9.49879 -9.04452 90.3596
H -7.88241 -9.12766 90.9986
C -10.058 -6.42835 91.3948
C -7.57937 -6.65079 92.028
H -9.95043 -5.33729 91.3646
H -10.4009 -6.65688 92.41
H -10.8533 -6.72228 90.6982
O -6.38777 -7.3033 91.8439
C -5.29031 -7.00153 92.7288
H -5.0238 -5.93714 92.6682
H -4.41221 -7.60245 92.4622
H -5.56449 -7.23225 93.7669
O -7.73306 -5.79947 92.891
C -9.02012 -10.9632 92.4314
C -9.42849 -9.43828 92.4786
H -7.94594 -11.0225 92.6464
H -9.49707 -11.4314 93.2957
C -8.76254 -8.86559 93.7717
C -10.9851 -9.3392 92.6058
H -9.03595 -9.46045 94.6535
H -9.08415 -7.83832 93.9799
H -7.66778 -8.88417 93.7047
O -11.447 -9.91485 93.7619
C -12.865 -9.96814 94.0106
H -13.2939 -8.9569 94.0291
H -13.0576 -10.4487 94.978
H -13.3699 -10.5485 93.2272
O -11.7383 -8.89668 91.7531
C -9.00402 -13.3936 91.4263
C -9.30024 -11.8638 91.1612
H -9.38931 -13.9157 90.5444
H -7.91874 -13.5326 91.3929
C -10.7776 -11.7095 90.6608
C -8.32493 -11.4913 89.9909
H -10.9292 -10.7531 90.1462
H -11.5196 -11.7629 91.4618
H -11.0269 -12.4815 89.9211
O -7.00603 -11.4883 90.3655
C -5.98879 -11.1932 89.388
H -6.03736 -11.9066 88.5541
H -4.99615 -11.2638 89.8502
H -6.11837 -10.179 88.988
O -8.67404 -11.2541 88.8448
C -9.37578 -15.748 92.4644
C -9.50384 -14.1878 92.6918
H -10.2002 -16.0684 91.8125
H -9.57757 -16.1895 93.4431
C -11.029 -13.9351 92.93
C -8.69233 -13.8051 93.9726
H -11.6087 -14.0867 92.01
H -11.2215 -12.9246 93.3089
H -11.4323 -14.6256 93.6835
O -9.28043 -14.2639 95.1199
C -8.6304 -14.043 96.3855
H -7.62141 -14.4769 96.3807
H -9.20778 -14.5154 97.1899
H -8.54968 -12.9682 96.5952
O -7.62736 -13.2081 93.9708
C -8.17286 -18.0065 91.8561
C -8.06294 -16.4253 91.9115
H -7.18718 -18.3575 91.5199
H -8.84475 -18.2695 91.027
C -6.8315 -16.0055 92.7832
C -7.86841 -16.0405 90.4061
H -7.04442 -16.0366 93.8572
H -5.96535 -16.6516 92.5894
H -6.50294 -14.9837 92.5586
O -6.61689 -15.5744 90.1
C -6.33074 -15.1598 88.7503
H -6.51093 -15.9829 88.0453
H -5.28106 -14.8522 88.6677
H -6.96787 -14.3116 88.467
O -8.74388 -16.167 89.563
C -8.10672 -20.3791 92.7204
C -8.61667 -18.9155 93.0712
H -7.01089 -20.3306 92.6733
H -8.40012 -20.5925 91.6835
C -10.1808 -18.9343 93.1522
C -7.96641 -18.4098 94.3947
H -10.636 -17.9456 93.1738
H -10.5211 -19.4149 94.0758
H -10.6205 -19.4582 92.2941
O -6.61199 -18.6049 94.4161
C -5.86397 -18.2576 95.5969
H -6.2299 -18.8268 96.4629
H -5.95498 -17.1859 95.8142
H -4.80383 -18.4972 95.4499
O -8.5813 -17.8614 95.2967
C -7.40103 -22.7607 93.1847
C -8.48397 -21.6616 93.5719
H -6.45367 -22.3985 93.6001
H -7.25671 -22.7412 92.097
C -9.91367 -22.1607 93.155
C -8.38624 -21.3269 95.0973
H -9.98898 -22.3022 92.07
H -10.7096 -21.4684 93.4373
H -10.1773 -23.1006 93.6509
O -9.60745 -21.1796 95.6995
C -9.67337 -20.7498 97.0734
H -9.07462 -21.4062 97.7191
H -10.7132 -20.7672 97.4224
H -9.29299 -19.7241 97.1696
O -7.33654 -21.1723 95.7007
C -6.16078 -25.0575 93.5101
C -7.53161 -24.2737 93.6254
H -5.46161 -24.6057 94.2248
H -6.40072 -26.0467 93.9095
C -7.85961 -24.3315 95.1569
C -8.63419 -25.0746 92.8573
H -7.11814 -23.7779 95.7491
H -7.85221 -25.3658 95.5263
H -8.85632 -23.9399 95.3873
O -8.97953 -24.5452 91.6414
C -9.97602 -25.2164 90.8436
H -9.6738 -26.2523 90.637
H -10.1096 -24.6937 89.8884
H -10.9394 -25.2356 91.3703
O -9.10479 -26.1247 93.2646
C -4.33787 -26.535 92.4301
C -5.35433 -25.3417 92.177
H -3.78848 -26.6971 91.4935
H -4.95348 -27.4305 92.5383
C -6.29082 -25.8656 91.0399
C -4.5917 -24.0858 91.6428
H -6.9745 -26.6481 91.396
H -5.70762 -26.3017 90.2164
H -6.86577 -25.0482 90.5914
O -3.97855 -24.3136 90.4368
C -3.22456 -23.2496 89.8195
H -2.37199 -22.9626 90.4502
H -3.85988 -22.3665 89.6715
H -2.84381 -23.5709 88.8417
O -4.51069 -23.0164 92.2212
C -2.16869 -27.6473 93.3763
C -3.26297 -26.5232 93.5986
H -1.28829 -27.3543 93.9627
H -1.83133 -27.5538 92.3353
C -2.46423 -25.1798 93.5156
C -3.88823 -26.6579 95.0225
H -1.60698 -25.1821 94.2025
H -2.07733 -24.9918 92.5054
H -3.07559 -24.3253 93.8311
O -4.9229 -27.5507 95.0687
C -5.59972 -27.7743 96.3221
H -6.45991 -28.4407 96.1816
H -5.95733 -26.8242 96.7403
H -4.92033 -28.2409 97.0452
O -3.4972 -26.0421 96.0007
C -1.07367 -29.9022 93.1351
C -2.39199 -29.1936 93.6673
H -0.233516 -29.2122 93.2961
H -1.16878 -29.9342 92.0401
C -3.59462 -29.7211 92.8188
C -2.63711 -29.466 95.188
H -3.65699 -30.8112 92.837
H -3.53054 -29.4083 91.7692
H -4.55123 -29.3868 93.2329
O -1.82963 -28.729 96.0127
C -1.9386 -28.931 97.4421
H -1.69102 -29.9682 97.7128
H -2.95725 -28.7236 97.7886
H -1.25695 -28.2617 97.9796
O -3.47974 -30.2436 95.6089
C 0.223613 -31.1534 94.9661
C -0.545515 -31.3228 93.6028
H -0.418144 -30.6147 95.6552
H 1.04824 -30.4545 94.7727
C -1.67632 -32.3971 93.7195
C 0.494506 -31.7101 92.498
H -2.3669 -32.1983 94.5467
H -1.25612 -33.397 93.8768
H -2.25864 -32.4651 92.7929
O -0.0193816 -32.526 91.5259
C 0.813191 -32.9073 90.4124
H 1.70708 -33.4442 90.7584
H 1.13324 -32.0177 89.8542
H 0.253679 -33.5609 89.7317
O 1.62447 -31.2476 92.4371
C 1.68483 -31.6806 96.9026
C 0.787423 -32.3718 95.7974
H 2.36055 -30.9708 96.4087
H 0.987361 -31.0664 97.4737
C 1.62714 -33.3277 94.8848
C -0.408951 -33.0934 96.4989
H 1.02062 -33.7619 94.0819
H 2.0102 -34.1904 95.4439
H 2.47622 -32.8045 94.4253
O -0.460521 -34.4415 96.2518
C -1.47477 -35.2376 96.895
H -2.47954 -34.8786 96.6308
H -1.36354 -35.1882 97.9869
H -1.38251 -36.2863 96.5832
O -1.20343 -32.5262 97.2312
C 3.39817 -31.5168 98.8709
C 2.5537 -32.4832 97.9416
H 4.07079 -32.1886 99.4011
H 4.05041 -30.9297 98.2106
C 1.64784 -33.418 98.7992
C 3.64521 -33.3244 97.2047
H 1.3509 -34.3122 98.2372
H 0.727285 -32.9176 99.1199
H 2.18457 -33.7753 99.6882
O 4.35318 -32.59 96.2895
C 5.36508 -33.2404 95.497
H 6.14974 -33.665 96.1384
H 5.82409 -32.5203 94.8074
H 4.91912 -34.0517 94.9066
O 3.90157 -34.4928 97.4522
C 3.93873 -29.566 100.502
C 2.79526 -30.5016 99.9316
H 4.49577 -29.2165 99.6268
H 3.43904 -28.6768 100.905
C 2.07751 -31.2294 101.113
C 1.80139 -29.5243 99.2226
H 1.75296 -30.5043 101.867
H 2.70443 -31.9794 101.603
H 1.15175 -31.7151 100.799
O 2.38608 -28.8291 98.1917
C 1.57388 -27.953 97.3795
H 0.7815 -28.52 96.874
H 2.18854 -27.4651 96.6126
H 1.1048 -27.175 97.9971
O 0.609621 -29.4418 99.4767
C 6.25724 -29.0323 101.501
C 5.01598 -30.0033 101.575
H 6.99854 -29.424 102.21
H 6.71774 -29.1854 100.515
C 5.62406 -31.4086 101.246
C 4.45731 -30.0118 103.035
H 6.47351 -31.6385 101.904
H 6.00177 -31.4549 100.216
H 4.90296 -32.2171 101.403
O 5.34719 -30.5566 103.925
C 5.03218 -30.5493 105.331
H 4.07217 -31.049 105.518
H 4.96699 -29.5169 105.698
H 5.81532 -31.0699 105.896
O 3.39165 -29.5319 103.382
C 7.68592 -27.0057 101.564
C 6.18746 -27.4681 101.733
H 8.31013 -27.6881 102.156
H 7.96594 -27.2298 100.526
C 5.6745 -27.1396 103.17
C 5.29286 -26.7828 100.655
H 5.74694 -26.0693 103.385
H 6.23135 -27.6881 103.941
H 4.60829 -27.3667 103.28
O 5.74249 -26.9851 99.3775
C 5.00476 -26.3932 98.2897
H 3.95759 -26.7202 98.3143
H 5.43937 -26.6859 97.3267
H 5.02664 -25.2985 98.3652
O 4.28316 -26.1439 100.904
C 9.64558 -25.5226 101.252
C 8.1961 -25.5484 101.886
H 10.0465 -26.5439 101.297
H 9.51177 -25.3441 100.176
C 7.29064 -24.5055 101.15
C 8.23639 -25.3288 103.433
H 7.69186 -23.49 101.217
H 7.18625 -24.7395 100.083
H 6.28803 -24.4657 101.595
O 7.86951 -24.0642 103.811
C 7.96257 -23.6828 105.199
H 7.47357 -24.4244 105.845
H 7.47839 -22.7109 105.353
H 9.01412 -23.597 105.502
O 8.55965 -26.1919 104.235
C 12.0213 -24.9586 100.797
C 10.8171 -24.5926 101.754
H 11.6462 -24.8931 99.7725
H 12.2186 -26.0203 100.969
C 10.3968 -23.1011 101.604
C 11.1819 -24.9339 103.231
H 10.1121 -22.8611 100.572
H 11.203 -22.4241 101.906
H 9.55216 -22.8576 102.257
O 11.4581 -26.2638 103.409
C 11.7284 -26.7483 104.739
H 10.8839 -26.5301 105.409
H 12.6291 -26.2735 105.148
H 11.8809 -27.8346 104.716
O 11.2062 -24.1153 104.138
C 14.4835 -25.0546 99.9697
C 13.4278 -24.2507 100.833
H 15.3934 -24.4405 99.9339
H 14.7743 -25.9273 100.566
C 13.99 -24.2925 102.291
C 13.3694 -22.7744 100.325
H 13.9309 -25.3052 102.712
H 13.4537 -23.5981 102.949
H 15.0471 -23.9928 102.317
O 14.4607 -22.0439 100.715
C 14.5375 -20.6572 100.339
H 13.6877 -20.1011 100.758
H 14.5184 -20.5585 99.246
H 15.4673 -20.2142 100.716
O 12.4884 -22.3042 99.624
C 15.5331 -25.8785 97.7371
C 14.1802 -25.5519 98.4956
H 15.3078 -25.8853 96.6633
H 16.184 -25.0023 97.8692
C 13.5582 -24.3804 97.6624
C 13.1968 -26.7643 98.478
H 12.5313 -24.1582 97.9664
H 13.4803 -24.648 96.6008
H 14.1506 -23.4602 97.7295
O 13.3922 -27.6333 99.5184
C 12.5169 -28.7654 99.6903
H 11.5235 -28.4393 100.026
H 12.9345 -29.4464 100.443
H 12.4039 -29.3162 98.7467
O 12.3001 -26.9144 97.6608
C 17.7933 -26.8711 97.2471
C 16.4122 -27.1708 97.9775
H 18.2815 -26.0434 97.7795
H 17.5463 -26.4416 96.2713
C 15.717 -28.3888 97.2812
C 16.6359 -27.4321 99.4981
H 15.5296 -28.1855 96.2191
H 14.7606 -28.6496 97.7344
H 16.3193 -29.2999 97.3578
O 17.3226 -26.4254 100.123
C 17.6225 -26.5612 101.527
H 18.2948 -27.4145 101.695
H 16.7012 -26.7293 102.102
H 18.108 -25.6518 101.902
O 16.2919 -28.4498 100.081
C 20.2957 -27.3622 96.7098
C 18.8807 -27.9996 97.0092
H 20.4403 -26.597 97.4665
H 21.0574 -28.104 96.9792
C 19.0958 -28.7892 98.347
C 18.4524 -28.9474 95.8428
H 19.923 -29.5073 98.2613
H 18.2174 -29.3814 98.6287
H 19.3443 -28.1099 99.1753
O 19.0587 -30.1724 95.9092
C 18.7534 -31.1473 94.8952
H 19.3386 -32.0593 95.0641
H 18.9944 -30.7539 93.8979
H 17.6868 -31.4042 94.9202
O 17.6904 -28.6302 94.9497
C 22.1137 -26.0773 95.364
C 20.7191 -26.8156 95.2842
H 22.5425 -26.098 94.3496
H 22.7667 -26.7373 95.9473
C 19.6613 -25.8691 94.6525
C 20.9617 -28.0426 94.3416
H 18.7594 -26.4168 94.3603
H 20.0499 -25.4322 93.7224
H 19.3641 -25.0551 95.3216
O 21.9095 -28.8994 94.8394
C 22.1977 -30.1201 94.1351
H 23.0318 -30.6447 94.6138
H 22.4656 -29.9093 93.092
H 21.3231 -30.7793 94.1487
O 20.4066 -28.2239 93.2696
C 23.8892 -24.4441 96.021
C 22.3169 -24.5989 95.8997
H 24.2378 -25.2932 96.6143
H 24.308 -24.6282 95.0254
C 21.644 -24.3934 97.2917
C 21.741 -23.5834 94.8642
H 20.5551 -24.4843 97.2233
H 21.802 -23.3827 97.6645
H 22.0223 -25.0928 98.0437
O 22.4438 -23.565 93.6937
C 22.0549 -22.6411 92.6587
H 21.0774 -22.9068 92.2373
H 22.7983 -22.6514 91.8535
H 21.998 -21.6214 93.0615
O 20.7807 -22.8583 95.0753
C 26.0791 -23.0634 96.0168
C 24.6139 -23.1744 96.617
H 26.4466 -22.0707 96.3045
H 25.9538 -23.0088 94.9307
C 24.6797 -23.3046 98.1778
C 23.8932 -21.8447 96.1826
H 25.0038 -24.3035 98.4832
H 23.7152 -23.1445 98.6688
H 25.3636 -22.5633 98.6076
O 22.9916 -21.3849 97.1068
C 22.188 -20.2156 96.8469
H 21.6906 -20.2864 95.8677
H 22.8077 -19.309 96.8681
H 21.4133 -20.1314 97.6209
O 24.0826 -21.2826 95.1143
C 28.5437 -23.5602 95.457
C 27.2816 -24.064 96.3041
H 29.4417 -23.7873 96.0345
H 28.5012 -22.4626 95.4668
C 27.8025 -23.8652 97.7777
C 26.8577 -25.5607 96.0686
H 28.0611 -22.8152 97.9844
H 27.0977 -24.1907 98.5453
H 28.7062 -24.4758 97.9528
O 26.5928 -26.2354 97.2387
C 25.9712 -27.5398 97.1988
H 24.9616 -27.4733 96.7743
H 25.885 -27.9479 98.2145
H 26.5521 -28.2364 96.5829
O 26.5666 -26.0361 94.9868
C 30.0081 -22.9824 93.374
C 28.9151 -23.9754 93.9749
H 30.0863 -23.1882 92.2982
H 29.5633 -21.9779 93.428
C 27.6918 -23.7319 93.0338
C 29.3794 -25.4628 93.8631
H 26.85 -24.3995 93.2289
H 27.9645 -23.9044 91.9866
H 27.3292 -22.7011 93.1028
O 29.6126 -26.0493 95.08
C 30.0723 -27.4122 95.1526
H 31.0804 -27.512 94.7255
H 29.3976 -28.0936 94.6172
H 30.1107 -27.7268 96.2036
O 29.5898 -26.0271 92.7991
C 32.1717 -21.6801 93.0347
C 31.5096 -22.8492 93.8868
H 32.5008 -22.1533 92.0994
H 31.3633 -21.0204 92.7016
C 32.2879 -24.1639 93.5455
C 31.5592 -22.543 95.406
H 31.9404 -25.0062 94.1541
H 33.3631 -24.064 93.7435
H 32.173 -24.4235 92.4822
O 30.8752 -21.402 95.7242
C 30.744 -21.0146 97.1048
H 30.16 -21.7646 97.6555
H 30.2247 -20.0512 97.1658
H 31.7335 -20.916 97.5706
O 32.0277 -23.2968 96.2455
C 33.8963 -20.0934 92.1482
C 33.3456 -20.703 93.5118
H 33.032 -20.0165 91.4777
H 34.5064 -20.8915 91.7143
C 34.4681 -21.5384 94.2358
C 32.7621 -19.564 94.4086
H 34.1342 -21.963 95.1914
H 35.3437 -20.9406 94.4989
H 34.8265 -22.3626 93.6107
O 33.6143 -19.1687 95.4044
C 33.2641 -18.0582 96.2655
H 32.352 -18.2704 96.8441
H 33.0943 -17.1481 95.6692
H 34.0884 -17.8597 96.9699
O 31.7022 -19.0002 94.1716
C 36.0765 -18.7435 92.6568
C 34.6843 -18.7216 91.9202
H 36.6793 -19.4977 92.1391
H 35.8938 -19.1613 93.6443
C 33.7778 -17.5044 92.3233
C 34.9428 -18.6914 90.3701
H 34.1367 -16.5544 91.9037
H 33.7198 -17.3575 93.4042
H 32.7524 -17.6169 91.9484
O 34.9464 -17.4359 89.8176
C 35.0345 -17.2753 88.3862
H 34.0555 -17.476 87.9243
H 35.7627 -17.9697 87.9413
H 35.3418 -16.248 88.1461
O 35.0859 -19.6842 89.6751
C 36.285 -16.5543 93.9771
C 37.0087 -17.4838 92.9225
H 35.6964 -17.2191 94.6305
H 35.5544 -15.9528 93.4237
C 37.3395 -16.7016 91.5961
C 38.2886 -18.1416 93.5251
H 36.5035 -16.085 91.2495
H 37.6075 -17.3892 90.7835
H 38.1965 -16.0269 91.7018
O 39.3544 -18.1916 92.6648
C 40.5128 -18.9591 93.0619
H 40.2191 -19.9844 93.337
H 41.0069 -18.4946 93.9273
H 41.2319 -19.0242 92.2382
O 38.2566 -18.7991 94.5618
C 35.7148 -14.8066 95.6138
C 36.9717 -15.5316 94.9602
H 34.9356 -15.5555 95.814
H 35.2776 -14.1993 94.8149
C 37.8209 -14.4835 94.1492
C 37.82 -16.3131 96.0151
H 38.45 -13.8681 94.7953
H 38.5293 -14.9673 93.4782
H 37.1934 -13.8142 93.5519
O 39.169 -16.2365 95.781
C 40.0491 -17.0161 96.6167
H 39.9362 -16.7194 97.6675
H 41.0973 -16.8854 96.31
H 39.7975 -18.0841 96.5361
O 37.3421 -16.9463 96.9439
C 34.4958 -12.9881 97.0804
C 35.7787 -13.9159 96.9065
H 34.7418 -12.2916 97.8834
H 33.7046 -13.6087 97.5263
C 37.0694 -13.0445 96.8925
C 35.7311 -14.8419 98.1746
H 37.15 -12.4761 95.9714
H 37.9785 -13.6447 96.9954
H 37.0921 -12.3316 97.72
O 36.6347 -14.4766 99.1408
C 36.6453 -15.1776 100.395
H 36.8556 -16.246 100.237
H 35.6738 -15.078 100.9
H 37.4181 -14.7624 101.054
O 34.8631 -15.6762 98.3697
C 34.6378 -11.4131 94.8912
C 33.7256 -12.1799 95.9423
H 34.0442 -11.3777 93.9776
H 35.4626 -12.0685 94.6126
C 32.7691 -11.2306 96.7531
C 32.7539 -13.1384 95.1481
H 33.2628 -10.5255 97.4285
H 32.0927 -11.8306 97.3799
H 32.1274 -10.6466 96.0891
O 31.812 -12.4707 94.4088
C 30.7616 -13.212 93.7442
H 31.1734 -13.9114 93.0001
H 30.0884 -12.5213 93.2245
H 30.1659 -13.7925 94.473
O 32.745 -14.362 95.2327
C 36.3179 -9.5932 94.0221
C 35.2104 -9.95049 95.1229
H 36.9724 -8.83164 94.4656
H 36.9716 -10.462 93.9546
C 35.9881 -9.89251 96.4766
C 34.0677 -8.89273 95.1918
H 35.3996 -10.2664 97.3114
H 36.26 -8.85912 96.7231
H 36.9283 -10.4384 96.4398
O 33.0968 -9.11029 94.2588
C 31.931 -8.25655 94.24
H 32.0265 -7.4043 94.9276
H 31.0388 -8.83611 94.5255
H 31.7843 -7.86296 93.2225
O 34.0447 -7.97141 95.9888
C 37.361 -8.7692 91.7519
C 36.0087 -9.10355 92.5343
H 37.2191 -7.79219 91.274
H 38.1346 -8.57152 92.4989
C 35.1499 -10.1822 91.7982
C 35.2107 -7.76057 92.6191
H 34.1533 -10.2742 92.2462
H 34.9336 -9.89351 90.7615
H 35.6258 -11.1705 91.819
O 35.7821 -6.87772 93.4965
C 35.1646 -5.60573 93.7852
H 35.8265 -5.02385 94.4421
H 34.2162 -5.75113 94.318
H 34.975 -5.02991 92.8643
O 34.2292 -7.48575 91.9451
C 37.0296 -9.89259 89.4329
C 38.0031 -9.67407 90.6191
H 36.5312 -8.95099 89.1708
H 37.545 -10.2682 88.5359
C 39.2025 -8.84769 90.021
C 38.5141 -11.0742 91.1051
H 38.8575 -7.88263 89.6152
H 39.6855 -9.38096 89.1871
H 39.9906 -8.64525 90.7673
O 39.3284 -11.6846 90.1787
C 39.9811 -12.9419 90.467
H 39.2798 -13.787 90.4159
H 40.4272 -12.9197 91.4664
H 40.7815 -13.1123 89.7383
O 38.2846 -11.5672 92.1985
