11

 C    0.110399054030    1.077295580582   -2.040356746236
 C    0.304963409785    0.065868921736   -0.937986176029
 H   -0.351984050087    0.573025142979   -2.888425913935
 N   -0.311806963155    0.364540443361    0.260555933861
 H    1.091688174063    1.428003919262   -2.358761227029
 O    0.947162753507   -0.926587538490   -1.086821674936
 H   -0.501552511871    1.928486391337   -1.746388950561
 C   -0.245834039755   -0.441275938000    1.380869255687
 H   -0.845399073111    1.204160934579    0.359780018867
 O   -0.785022528058   -0.157917001481    2.398004586249
 H    0.347773680682   -1.344121831118    1.224961634153
