8

 C   -1.441935238690    0.156026998770   -0.180417223196
 C    0.025585424235    0.366375836395    0.045748828210
 H   -2.004495609317    0.505271015377    0.685216853096
 H   -1.634829101237   -0.906580243752   -0.329433848267
 H   -1.763814645004    0.706884871925   -1.063999194440
 F    0.436089762940   -0.333124887245    1.120781439169
 H    0.301991293681    1.406293541958    0.203640869687
 F    0.729127244706   -0.087652510233   -1.008953915577
