37

 H    5.198098407736   -2.753398320911    2.219332367442
 C    4.863332014945   -2.102793031125    1.423184948615
 C    3.765596672293   -2.462416499739    0.655172352844
 H    3.247016386283   -3.392980089778    0.829308896364
 C    3.349922161471   -1.619164756156   -0.365434894414
 S    1.943570108215   -2.077736754316   -1.358670181869
 C    4.027052393726   -0.440669171259   -0.648284375711
 H    3.709068927439    0.179054273674   -1.473029659851
 C    5.123010500855   -0.089586079986    0.124705687963
 H    5.660083811288    0.824464905134   -0.088167471269
 C    5.536670843160   -0.917578732952    1.160342751368
 H    6.394805768898   -0.642258147038    1.758935315374
 O    2.105854417409   -1.439366469112   -2.653681683631
 O    1.791393525385   -3.518036596060   -1.245010276520
 H    0.185464661462   -3.006011552196    0.722857075942
 C   -0.136780962005   -2.017423421896    0.432113442144
 C   -1.232073430730   -1.438171342894    1.034826811845
 H   -1.779893045416   -1.948362963461    1.813215370781
 C   -1.663266163172   -0.174179076753    0.630298040422
 O   -2.745062997008    0.303780550569    1.284269920739
 H    0.611386427709    0.421620820348   -1.792832575419
 C    0.103186314657   -0.085408824572   -0.986439557072
 C    0.541839455462   -1.331229662302   -0.572252011466
 H   -2.145468901854    2.585418110099    2.404504844894
 H   -3.196359685502    4.765212889344    1.891186909209
 C   -2.905777991645    2.656737384539    1.639551959230
 C   -3.500661321574    3.878343339829    1.349056554055
 H   -4.767167334197    5.827696976581    0.576660645376
 C   -3.291830657069    1.523040365346    0.954254602672
 C   -4.483051728511    3.959765071332    0.373212914593
 O   -5.096312071573    5.117116989283    0.047364686089
 C   -4.277991809864    1.597640447974   -0.017915684351
 C   -4.871410717111    2.811855605714   -0.310442030301
 H   -4.580687222409    0.699976455440   -0.538675556470
 H   -5.642485078360    2.887461369873   -1.063317720288
 C   -0.999628133633    0.503981789376   -0.384079120505
 H   -1.337674848151    1.473194482332   -0.714304309103
