68

 N   -9.532142724676    4.335283217474   -2.137413245456
 C   -8.479679132947    4.164483091215   -3.024230870035
 C   -7.338854405106    3.696501837326   -2.178661929416
 C   -9.212113798392    4.035343636953   -0.825374690418
 C   -7.775051758812    3.617974804862   -0.867153617589
 H  -10.438109208682    4.648299651604   -2.420735331847
 O   -8.512301325944    4.355375499120   -4.191615898176
 O   -9.936469742177    4.101426565351    0.108880950912
 C   -6.045127996912    3.384310991165   -2.530472899106
 C   -6.938451565427    3.218262707868    0.151369630781
 C   -5.633571387645    2.876253836177   -0.194724196581
 C   -5.186735504207    2.950242819461   -1.516024708489
 H   -5.696357093940    3.468291485016   -3.548287523407
 H   -7.280444409686    3.173776956335    1.174795322029
 H   -4.950771793907    2.565212059706    0.582648285431
 C   -3.757377669593    2.662906045011   -1.893159437743
 C   -2.961443556151    1.621821827538   -1.152338863636
 C   -1.579986103848    1.812017772592   -1.061021218367
 C   -0.845306539764    0.834388634148   -0.427648056596
 C   -3.551137017915    0.460502542587   -0.645454799314
 C   -2.791780522496   -0.529880222387   -0.028754976712
 C   -1.435541172732   -0.308354456365    0.073864513302
 C   -0.367569940310   -1.158700169900    0.681117854750
 N    0.823163551654   -0.457362185376    0.497959372466
 C    0.621492663552    0.757666752555   -0.163655691341
 C    2.100522241306   -0.926606128868    0.933620785456
 C    3.141726982797   -1.052034149924    0.034498266784
 C    4.385380855606   -1.500626034403    0.463973160572
 C    2.304060008191   -1.260776133431    2.265552534243
 C    3.540801001151   -1.718637036338    2.679082588418
 C    4.614054038994   -1.846604881405    1.791394810083
 H    2.995072861387   -0.792169073663   -1.003426322262
 H    5.175355346952   -1.588371751299   -0.264815937953
 H   -3.243937409588   -1.433714070673    0.351827297152
 H   -4.616711322122    0.314625221943   -0.748565167415
 H   -1.115958885954    2.694252722738   -1.474377973634
 O    1.456067983607    1.545579361952   -0.449256759960
 O   -0.492888765238   -2.207059860961    1.216223779737
 O   -3.251853207964    3.266968263180   -2.787656007015
 H    1.494607706433   -1.174293964449    2.975206012584
 H    3.664732776137   -1.979399154366    3.720749024607
 C    5.978465408660   -2.334686874953    2.319334286628
 C    6.490651080029   -1.334758228500    3.374828375776
 H    6.540081649472   -0.322500208452    2.969908351204
 H    7.488935999555   -1.618904814428    3.712270010292
 H    5.834385284517   -1.307903638640    4.246305335112
 C    5.887597755639   -3.772830297984    2.914375938927
 C    6.323676924271   -4.777920484999    1.817343950044
 H    4.900734465627   -4.004357266251    3.313964154639
 H    6.593610395983   -3.837927408379    3.744971517449
 C    7.198498198451   -3.893954412543    0.937970731777
 C    5.121646326922   -5.320211934396    1.023420892262
 C    7.097423331511   -5.953656248520    2.427967537328
 C    7.010317439776   -2.546201246203    1.213947391628
 H    7.998959269653   -5.611796925105    2.940507848611
 H    7.396573127056   -6.675386001738    1.664167137735
 H    6.474173841183   -6.484257816399    3.153044593141
 C    8.101614199838   -4.288304157987   -0.042464489453
 C    7.740721803540   -1.582083555595    0.528265298149
 C    8.646880844949   -1.976180615255   -0.445982343494
 C    8.823428605908   -3.325649458470   -0.733230735889
 H    7.607934011662   -0.529786014736    0.742873653369
 H    4.518416099686   -4.516245770055    0.602319812884
 H    4.477358277960   -5.923379181752    1.668780436345
 H    5.458280046069   -5.953849485309    0.199207056061
 H    8.253337298471   -5.336318100080   -0.265620660215
 H    9.219870218585   -1.231037038268   -0.982024594905
 H    9.532669353858   -3.625877640297   -1.493479122274
