494
xyz file written from pySIMM system module
C 79.0512 -68.515 68.5847
H 77.316 -68.1853 71.7658
C 78.6692 -69.5849 69.2954
H 76.2254 -67.7457 70.3979
H 78.179 -66.9891 67.3057
H 77.0329 -67.728 68.3768
C 78.0676 -67.386 68.3204
H 78.1735 -66.56 69.0338
S 77.1647 -69.93 70.1481
H 75.6614 -68.8881 71.6608
C 76.5276 -68.5384 71.0888
H 75.6633 -69.4257 68.3517
H 76.3001 -71.1034 68.2694
C 75.9059 -70.3222 68.9303
H 75.0191 -70.6815 69.4619
H 78.0888 -71.1412 71.9646
C 77.3583 -71.3776 71.1819
H 76.3839 -71.6127 71.6236
H 77.7107 -72.2047 70.554
C 80.7368 -67.6072 67.1652
H 82.7817 -69.8254 66.1557
C 80.2545 -68.5837 67.9635
H 83.3965 -69.3959 67.7957
H 79.8253 -68.6762 65.5046
H 80.3896 -67.091 65.0623
C 80.6392 -67.963 65.6791
H 81.5547 -68.3989 65.2735
S 81.1412 -70.156 67.8898
H 83.2266 -71.1176 67.3046
C 82.807 -70.1089 67.2101
H 80.1146 -71.5843 69.5493
H 81.7962 -72.0442 69.1791
C 81.1222 -71.1997 69.3648
H 81.4807 -70.6049 70.2117
H 80.6086 -72.2425 66.8787
C 80.1993 -71.2294 66.7923
H 79.1483 -71.211 67.0985
H 80.3079 -70.8606 65.7674
C 81.6614 -65.4839 66.6526
H 81.3333 -63.5917 69.0737
C 81.0037 -66.3116 67.5374
H 79.6754 -64.0014 69.6493
H 83.8158 -65.6138 66.3308
H 83.1169 -67.1393 66.545
C 82.9124 -66.1661 66.085
H 82.8639 -66.3546 65.0137
S 81.0963 -65.8892 69.3011
H 81.0665 -64.0448 70.7816
C 80.7458 -64.2037 69.7482
H 79.4402 -66.9068 70.7173
H 80.8754 -67.9842 70.4566
C 80.5308 -66.9617 70.6379
H 80.9723 -66.5891 71.5683
H 83.2452 -64.8462 69.1535
C 82.8642 -65.7616 69.61
H 83.0239 -65.735 70.6931
H 83.3524 -66.6367 69.1714
C 80.3319 -63.4352 66.7643
H 82.1629 -65.2074 63.5433
C 81.4653 -64.1284 66.4177
H 80.7763 -64.0861 63.5275
H 78.117 -63.6633 66.7994
H 78.9477 -64.8071 67.762
C 79.0316 -64.2556 66.8289
H 78.9766 -64.9707 66.0004
S 82.4468 -63.3338 65.0693
H 82.3036 -63.6512 62.7025
C 81.8666 -64.1589 63.5675
H 82.8703 -60.9794 65.1248
H 82.5105 -61.5661 63.4885
C 82.2078 -61.6238 64.5396
H 81.1655 -61.3224 64.6304
H 84.6528 -62.838 64.3214
C 84.214 -63.6708 64.883
H 84.6713 -63.7095 65.877
H 84.3674 -64.6067 64.3358
C 79.1434 -61.3969 66.4145
H 83.8436 -61.8316 66.8522
C 80.2496 -62.0714 66.9133
H 83.8499 -61.4766 68.5835
H 79.385 -62.671 64.6167
H 77.7283 -62.3551 64.9856
C 78.7193 -61.9079 65.0262
H 78.7996 -61.1128 64.2846
S 81.6665 -61.172 67.658
H 83.1643 -63.027 68.0281
C 83.2882 -61.9708 67.7832
H 82.7697 -59.0639 67.5612
H 81.8709 -59.4056 66.0389
C 81.8462 -59.4704 67.1306
H 80.9908 -58.9321 67.5179
H 80.5964 -60.3081 69.6131
C 81.4711 -60.9193 69.4303
H 81.3978 -61.8538 69.9765
H 82.3615 -60.3921 69.7894
C 78.5291 -59.9194 68.2343
H 76.8226 -60.4016 63.8256
C 78.5245 -60.2639 66.9165
H 76.114 -58.7835 64.0558
H 78.9443 -61.5262 69.7304
H 77.2628 -61.0168 69.6745
C 78.1559 -61.1572 69.0743
H 77.8695 -62.0218 68.4673
S 77.0289 -59.6018 66.0955
H 77.8948 -58.9525 63.9592
C 76.9676 -59.4272 64.2982
H 74.8231 -60.5035 65.9179
H 76.0381 -61.806 65.8603
C 75.7655 -60.8707 66.3435
H 75.6561 -61.029 67.4236
H 75.1018 -58.2658 66.4207
C 76.1019 -58.2647 66.8599
H 76.0328 -58.4759 67.9248
H 76.5804 -57.3047 66.6786
C 78.8852 -57.4589 68.0761
H 75.8847 -59.6823 70.2441
C 78.5426 -58.6244 68.7604
H 75.8386 -58.5078 71.5747
H 78.5201 -56.9267 65.9895
H 79.5481 -58.3273 66.0991
C 79.2861 -57.3959 66.5901
H 80.1854 -56.782 66.4721
S 77.9806 -58.4464 70.5177
H 75.7238 -57.9373 69.8954
C 76.186 -58.6793 70.5484
H 78.4485 -59.2999 72.6943
H 77.6762 -60.5463 71.6839
C 78.4243 -59.7465 71.6928
H 79.4146 -60.1361 71.4433
H 77.3165 -56.9752 72.2602
C 78.0412 -56.9018 71.4402
H 79.0315 -56.7942 71.8863
H 77.7731 -56.056 70.8048
C 78.8653 -55.0077 68.2178
H 80.0302 -54.8527 71.6429
C 79.1638 -56.2732 68.7021
H 81.6056 -55.6402 71.8573
H 78.7886 -54.0961 70.1917
H 78.4824 -52.9846 68.9425
C 79.1073 -53.8436 69.1797
H 80.1399 -53.484 69.191
S 80.6335 -56.3237 69.8018
H 81.4758 -54.2616 70.7367
C 80.9534 -55.1362 71.1331
H 82.2978 -57.7018 70.7594
H 80.6527 -58.3435 71.0725
C 81.3034 -57.8786 70.3333
H 81.4029 -58.4633 69.4294
H 81.669 -54.828 68.2296
C 81.9529 -55.77 68.702
H 82.8675 -55.6346 69.2914
H 82.1135 -56.5398 67.9381
C 76.6762 -54.5276 67.4118
H 80.9024 -54.7996 65.6629
C 78.0336 -54.6402 67.197
H 79.5757 -55.4097 64.6292
H 76.3717 -56.2447 68.682
H 75.0197 -55.1592 68.7354
C 76.113 -55.1836 68.6664
H 76.5284 -54.7669 69.5771
S 78.8769 -53.5574 65.9869
H 80.402 -53.8777 64.2079
C 80.0577 -54.5152 65.0285
H 77.7051 -53.0359 63.9529
H 77.1264 -52.0281 65.3318
C 77.994 -52.4798 64.8449
H 78.6871 -51.6901 64.5447
H 80.6433 -51.9551 65.8771
C 80.1801 -52.5261 66.69
H 79.7425 -51.8363 67.4198
H 80.9368 -53.1614 67.157
C 74.7395 -53.1001 67.0713
H 75.4394 -52.4728 63.6113
C 75.7671 -53.8986 66.599
H 75.3625 -53.9292 62.5857
H 73.2268 -53.1458 65.4869
H 73.0836 -51.7519 66.5304
C 73.8032 -52.4356 66.0666
H 74.3771 -51.8156 65.3685
S 75.6467 -54.518 64.874
H 73.9277 -53.4588 63.5184
C 75.0195 -53.4803 63.5255
H 76.4031 -56.0246 63.2269
H 77.7509 -55.0855 63.8785
C 76.8488 -55.6273 64.1461
H 77.0156 -56.4434 64.8371
H 74.3265 -56.1727 65.9648
C 74.267 -55.6721 64.9934
H 73.3204 -55.1418 64.8955
H 74.3653 -56.402 64.1796
C 73.3633 -52.7686 68.9778
H 75.1778 -48.8692 67.9434
C 74.5703 -52.6127 68.3406
H 74.8546 -50.0663 66.6551
H 71.5963 -53.3686 67.8632
H 72.8681 -54.601 67.8409
C 72.386 -53.8272 68.457
H 71.8951 -54.3603 69.2794
S 75.5318 -51.1145 68.6895
H 73.6578 -49.8192 67.9742
C 74.7173 -49.8389 67.7145
H 75.8329 -49.2412 70.1135
H 74.5451 -50.3034 70.7386
C 75.5333 -50.2792 70.2853
H 76.2786 -50.739 70.9321
H 77.1838 -50.1517 67.2747
C 77.1527 -51.0052 67.9606
H 77.8695 -50.8635 68.7791
H 77.3391 -51.9367 67.4398
C 71.8306 -51.4764 70.2475
H 74.198 -55.0885 72.4457
C 72.9935 -52.2257 70.1766
H 72.4885 -54.6639 72.2
H 70.5327 -50.13 69.0848
H 71.769 -50.9085 68.1186
C 71.1014 -51.0548 68.9688
H 70.3614 -51.8064 68.6912
S 73.9309 -52.8259 71.6197
H 73.5248 -55.0525 70.787
C 73.4871 -54.5793 71.7766
H 75.9472 -54.1815 71.7754
H 75.9826 -53.0375 70.3988
C 75.6962 -53.166 71.4376
H 76.2414 -52.4486 72.0624
H 74.0359 -52.7938 73.9804
C 73.6786 -52.0864 73.226
H 74.2681 -51.1618 73.2706
H 72.621 -51.8754 73.3813
C 70.4596 -51.6526 72.2112
H 69.6368 -47.9408 71.3958
C 71.2691 -50.9148 71.3585
H 70.2608 -48.2836 73.0729
H 70.6665 -53.8255 72.4102
H 69.0978 -53.2605 71.8017
C 70.1782 -53.0907 71.7814
H 70.4355 -53.34 70.7509
S 71.6772 -49.1466 71.4299
H 70.9735 -46.9885 72.0782
C 70.5064 -47.9804 72.0593
H 72.8224 -47.902 73.0939
H 72.5561 -49.6277 73.5656
C 72.8452 -48.9492 72.764
H 73.8462 -49.2002 72.4053
H 73.5815 -48.6264 70.0772
C 72.5236 -48.3711 70.039
H 72.0802 -48.6652 69.083
H 72.4288 -47.2866 70.1456
C 68.767 -50.2641 73.2788
H 68.006 -51.4597 76.0464
C 69.7425 -51.2364 73.324
H 68.6199 -52.9801 76.7766
H 68.6964 -49.7809 71.1335
H 67.7283 -51.161 71.6003
C 68.0531 -50.1673 71.9236
H 67.1437 -49.5575 71.9319
S 69.6758 -52.4563 74.7105
H 69.6072 -51.5059 76.8769
C 68.8881 -52.0512 76.2604
H 68.2563 -54.3358 75.1734
H 67.954 -53.6675 73.547
C 68.7297 -53.9318 74.2697
H 69.402 -54.688 73.8491
H 71.6615 -53.7448 74.216
C 71.2296 -53.276 75.1017
H 71.9171 -52.5339 75.5252
H 71.02 -54.0461 75.8511
C 67.1655 -48.6782 74.2516
H 71.3927 -49.7031 76.7574
C 68.242 -49.5333 74.3369
H 71.2682 -50.5193 75.1732
H 67.6333 -46.517 74.3627
H 68.3725 -47.3414 73.0248
C 67.4855 -47.3099 73.63
H 66.7074 -46.9629 72.9442
S 69.4321 -48.9785 75.618
H 71.7643 -48.8229 75.2602
C 71.1243 -49.5867 75.7027
H 70.5569 -46.9996 76.3249
H 69.9261 -46.8248 74.6656
C 69.7021 -47.1914 75.6704
H 68.8205 -46.6939 76.0857
H 68.0176 -48.1083 77.3579
C 68.6601 -48.9828 77.2528
H 68.0747 -49.8917 77.3909
H 69.4654 -48.9438 77.9877
C 64.9349 -47.8769 74.4906
H 65.6426 -51.9543 72.834
C 65.805 -48.9391 74.3445
H 66.995 -51.8473 74.0191
H 66.165 -47.4077 76.2403
H 65.7635 -46.0087 75.2608
C 65.3775 -46.9584 75.6285
H 64.5698 -46.791 76.3464
S 65.1401 -50.5729 74.6956
H 65.5845 -52.8764 74.3733
C 65.9274 -51.9598 73.8911
H 64.5706 -51.0367 76.97
H 66.1229 -51.7839 76.5136
C 65.5127 -50.8813 76.4331
H 66.0152 -50.0017 76.8467
H 62.9836 -50.7524 73.7321
C 63.3727 -50.7656 74.7529
H 63.149 -51.7194 75.2426
H 62.9836 -49.9429 75.3522
C 63.1427 -48.3559 72.8783
H 60.6854 -45.5126 74.0028
C 63.6833 -47.6522 73.9198
H 61.5699 -44.3639 73.0009
H 63.905 -48.6428 70.8622
H 65.1148 -48.2941 71.9372
C 64.1765 -48.8531 71.8711
H 64.3995 -49.9186 71.9682
S 63.0409 -45.9202 74.0129
H 61.2459 -45.9934 72.3581
C 61.479 -45.4218 73.2566
H 64.3806 -44.5813 75.5415
H 62.815 -43.8551 75.1719
C 63.3195 -44.7983 75.406
H 62.8971 -45.2464 76.3118
H 64.1233 -45.6995 71.904
C 64.1608 -45.1363 72.8427
H 63.8438 -44.098 72.6954
H 65.1752 -45.1646 73.2565
C 61.1575 -48.7566 71.4482
H 60.9077 -50.5768 74.7109
C 61.7751 -48.4194 72.6404
H 59.3418 -49.8731 75.2347
H 59.4226 -47.4386 71.5291
H 59.3331 -48.5481 70.2311
C 59.6718 -48.4715 71.2638
H 59.0288 -49.1757 71.7941
S 60.6565 -48.2574 74.1249
H 59.6043 -50.3174 73.5076
C 60.0742 -49.9332 74.4172
H 60.531 -48.2504 76.4898
H 62.2375 -48.1331 75.9771
C 61.224 -47.7877 75.7827
H 61.1402 -46.7018 75.9075
H 58.3205 -48.3255 73.4587
C 58.9551 -47.6356 74.0105
H 58.5638 -47.5709 75.0305
H 58.9429 -46.6417 73.5455
C 61.7923 -48.114 69.264
H 59.0958 -50.6553 69.5698
C 61.6958 -49.0818 70.2329
H 59.6391 -52.3464 69.7344
H 60.8183 -46.2734 69.9975
H 62.429 -46.5944 70.663
C 61.8109 -46.6736 69.7618
H 62.2893 -45.9961 69.0641
S 61.4526 -50.8141 69.8131
H 59.5583 -51.3025 71.193
C 59.758 -51.3284 70.1162
H 62.8618 -51.4218 68.0004
H 61.3722 -52.421 68.1105
C 61.7913 -51.4125 68.1821
H 61.3002 -50.7517 67.4897
H 61.9718 -51.502 72.0216
C 62.1919 -51.8906 71.0305
H 61.756 -52.8857 70.9157
H 63.2746 -51.912 70.8583
C 63.1998 -48.7335 67.3904
H 60.2384 -45.5098 67.6966
C 62.036 -48.2418 67.9211
H 58.7953 -46.2008 66.8862
H 63.9622 -49.936 69.0701
H 65.1686 -49.6025 67.858
C 64.2936 -49.1855 68.3467
H 64.6639 -48.3106 68.8932
S 60.6125 -47.7541 66.9003
H 59.2305 -46.7079 68.5535
C 59.6225 -46.4066 67.5749
H 61.4265 -48.411 64.7179
H 59.6939 -47.9854 64.7311
C 60.6869 -47.7014 65.0964
H 60.9138 -46.6871 64.7629
H 58.466 -48.6891 66.5211
C 59.2918 -48.9486 67.1944
H 59.623 -49.9671 66.9709
H 58.9473 -48.8657 68.228
C 64.4315 -49.419 65.3914
H 64.6527 -46.5812 63.3396
C 63.6238 -48.5398 66.0981
H 62.861 -46.662 63.3823
H 64.2541 -48.6686 63.3596
H 65.5273 -49.7885 63.5233
C 65.0334 -48.981 64.0594
H 65.7923 -48.2054 64.1663
S 63.7442 -46.7699 65.6128
H 63.719 -45.1644 63.8604
C 63.7542 -46.2627 63.8736
H 61.8603 -45.531 66.48
H 63.3542 -45.3718 67.5061
C 62.9406 -45.4353 66.5018
H 63.1905 -44.5041 65.9786
H 65.8913 -45.7741 65.228
C 65.4459 -46.3503 66.0472
H 65.419 -45.7506 66.9667
H 66.0131 -47.2688 66.2281
C 65.8933 -51.271 65.5704
H 62.73 -53.4542 66.8763
C 64.6225 -50.755 65.6241
H 62.3124 -53.9696 65.2172
H 66.8571 -49.5731 66.6058
H 67.9686 -50.8284 66.1129
C 67.0627 -50.2952 65.8118
H 67.3494 -49.7088 64.9324
S 63.2132 -51.7868 65.2
H 64.0173 -53.9967 65.7346
C 63.0646 -53.4679 65.8359
H 61.376 -50.297 65.6241
H 61.7353 -50.4693 63.8986
C 61.6407 -51.0066 64.8455
H 60.8822 -51.7992 64.7571
H 64.4156 -53.0862 63.7037
C 63.6371 -52.3349 63.5631
H 62.7556 -52.7752 63.0737
H 64.016 -51.4836 62.987
C 67.1475 -52.9914 64.5428
H 65.6252 -55.5584 66.7033
C 66.2722 -52.5892 65.5319
H 67.3966 -55.358 67.0238
H 67.8811 -51.1435 63.5549
H 66.3686 -51.769 62.9545
C 67.3453 -52.0642 63.346
H 67.896 -52.5523 62.541
S 66.2257 -53.3525 67.1609
H 66.2322 -55.3817 68.3707
C 66.3872 -55.0961 67.3265
H 67.8207 -53.3644 68.934
H 68.5822 -53.0548 67.3303
C 67.7373 -52.8233 67.9833
H 67.6656 -51.7471 68.1655
H 64.1256 -53.3438 68.2576
C 65.0337 -52.7523 68.3437
H 65.4478 -52.8546 69.3469
H 64.8689 -51.7073 68.1002
C 67.5792 -55.4275 64.4428
H 70.0941 -53.5131 62.3234
C 67.951 -54.0971 64.5065
H 71.615 -53.5789 63.2627
H 68.8627 -56.5029 65.8897
H 69.523 -56.426 64.2531
C 68.6096 -56.5047 64.8259
H 68.3119 -57.5192 64.5747
S 69.6976 -53.6071 64.6598
H 70.6755 -55.0751 63.0403
C 70.6037 -53.9953 63.1604
H 70.0293 -51.6743 66.0432
H 71.2828 -51.8506 64.7911
C 70.2051 -51.8981 64.99
H 69.7276 -51.1594 64.3384
H 71.5561 -54.0554 65.9687
C 70.6739 -54.6338 65.7433
H 70.0997 -54.8157 66.6552
H 70.9894 -55.5583 65.266
C 65.6285 -55.3266 63.0124
H 63.7986 -58.2903 65.9601
C 66.3675 -55.9156 64.009
H 63.4667 -56.7016 65.2314
H 63.5076 -55.3665 63.5576
H 63.7584 -55.4546 61.8273
C 64.1775 -55.7556 62.7861
H 64.1184 -56.8395 62.7183
S 65.734 -57.4403 64.8398
H 63.5017 -58.1882 64.2032
C 63.9411 -57.6728 65.0696
H 65.5373 -59.6932 64.1245
H 65.5438 -58.544 62.7269
C 66.0082 -58.8027 63.6873
H 67.0872 -58.9629 63.568
H 67.181 -57.3805 66.8053
C 66.5437 -58.1164 66.3187
H 65.7604 -58.4333 67.021
H 67.1499 -58.9782 66.0233
C 65.2944 -53.602 61.4654
H 69.459 -53.7322 60.3947
C 66.1093 -54.5385 62.0034
H 68.2778 -53.8488 59.0717
H 65.8694 -52.8925 59.4517
H 64.3984 -52.1919 60.108
C 65.402 -52.548 60.3734
H 65.9494 -51.6644 60.7314
S 67.5367 -55.0118 61.031
H 67.9936 -52.7216 60.4237
C 68.3994 -53.6965 60.1455
H 67.883 -57.2863 61.6973
H 69.1743 -56.669 60.6037
C 68.5353 -56.4371 61.4621
H 69.165 -56.1816 62.3002
H 67.4741 -55.8265 58.7756
C 66.721 -55.6638 59.558
H 66.2303 -56.6049 59.8206
H 65.975 -54.95 59.2007
