300
xyz file written from pySIMM system module
C -43.9123 -6.34231 21.5287
C -43.8107 -7.26632 22.7577
H -43.5539 -5.33564 21.7831
H -43.2544 -6.72335 20.7382
F -42.8881 -6.78317 23.618
F -43.3941 -8.49603 22.3831
C -45.6309 -5.1584 19.9617
C -45.3719 -6.25841 21.0294
H -45.2074 -4.21761 20.3399
H -46.7088 -4.96648 19.8915
F -46.165 -5.98704 22.0907
F -45.7643 -7.46854 20.5804
C -45.6789 -6.55072 17.6856
C -45.0579 -5.40712 18.5367
H -45.3781 -7.51709 18.1079
H -45.2185 -6.51191 16.6887
F -45.1443 -4.24994 17.8438
F -43.7299 -5.63315 18.622
C -47.7648 -7.42174 16.3694
C -47.2226 -6.51863 17.5099
H -48.8587 -7.35217 16.3736
H -47.4549 -6.99636 15.4047
F -47.631 -5.25947 17.2421
F -47.8361 -6.85367 18.6647
C -48.1073 -9.80361 15.4063
C -47.3238 -8.91259 16.4073
H -47.4625 -10.6211 15.0626
H -48.3006 -9.20854 14.5029
F -46.0202 -8.98093 16.0582
F -47.3967 -9.41987 17.6555
C -49.4234 -11.5775 16.9042
C -49.4622 -10.3785 15.9133
H -49.1319 -11.232 17.9045
H -50.4532 -11.9424 17.0218
F -50.1837 -9.39506 16.492
F -50.1941 -10.7366 14.8345
C -48.9585 -14.0635 17.2476
C -48.5229 -12.7745 16.5008
H -49.0122 -13.8313 18.3205
H -49.9898 -14.3116 16.9669
F -48.5746 -12.9683 15.166
F -47.2382 -12.481 16.7931
C -47.6173 -15.7426 15.6442
C -48.0486 -15.3153 17.0764
H -46.8885 -16.5528 15.7663
H -47.0599 -14.9286 15.1647
F -48.6657 -16.358 17.6749
F -46.9247 -15.1227 17.8022
C -48.3436 -16.2839 13.1965
C -48.7462 -16.2452 14.6971
H -47.9345 -15.2993 12.9296
H -49.2538 -16.3887 12.5895
F -49.1747 -17.4648 15.0845
F -49.8313 -15.4477 14.7895
C -47.949 -18.8126 12.6529
C -47.3349 -17.3811 12.7495
H -48.1102 -19.1991 13.6665
H -48.9457 -18.7489 12.196
F -46.8592 -16.9843 11.5501
F -46.2679 -17.3903 13.5748
C -47.7714 -21.2639 11.8845
C -47.1034 -19.8584 11.8708
H -48.0461 -21.5242 12.9157
H -48.7204 -21.2021 11.3349
F -45.8632 -19.9256 12.4005
F -46.9832 -19.4624 10.5852
C -47.7408 -23.7209 11.1055
C -46.9116 -22.4195 11.2928
H -47.9674 -24.1347 12.0977
H -48.7137 -23.4681 10.6619
F -45.8982 -22.6855 12.1462
F -46.3524 -22.0601 10.1187
C -45.6281 -25.194 10.6544
C -47.0814 -24.8343 10.2393
H -44.9698 -24.3595 10.3819
H -45.5803 -25.276 11.7487
F -47.8725 -25.9259 10.3277
F -47.1158 -24.4573 8.94102
C -43.4968 -26.5037 10.2084
C -45.041 -26.4939 10.0443
H -43.2526 -26.2581 11.2513
H -43.0817 -25.6828 9.60744
F -45.5773 -27.5683 10.6621
F -45.3582 -26.5885 8.73606
C -43.0511 -28.3095 8.38148
C -42.7574 -27.8135 9.82191
H -44.028 -28.812 8.37256
H -43.1522 -27.4333 7.72718
F -43.0547 -28.7864 10.7109
F -41.4345 -27.5804 9.97801
C -41.6213 -30.4991 8.58891
C -41.9993 -29.2508 7.73818
H -41.1666 -30.1691 9.53132
H -42.5465 -31.02 8.87082
F -40.9059 -28.5205 7.42972
F -42.5182 -29.641 6.55425
C -39.1794 -31.0159 7.8465
C -40.6475 -31.5196 7.92791
H -39.1255 -30.0584 7.32581
H -38.8472 -30.7883 8.86876
F -41.1008 -31.9032 6.7176
F -40.6849 -32.6355 8.68719
C -38.2807 -32.3402 5.69848
C -38.1381 -31.9774 7.20818
H -37.4817 -33.0428 5.42845
H -39.2015 -32.9169 5.55064
F -38.0891 -33.1285 7.9109
F -36.9302 -31.4104 7.41115
C -36.9924 -30.275 4.61729
C -38.2692 -31.1618 4.68367
H -37.1758 -29.4874 3.87248
H -36.8675 -29.7372 5.56554
F -38.5333 -31.6578 3.45463
F -39.3143 -30.3438 4.93091
C -34.5619 -29.9289 3.96115
C -35.6607 -30.9837 4.24179
H -34.8552 -29.3597 3.06916
H -34.5641 -29.2018 4.7866
F -35.8442 -31.7449 3.14465
F -35.2643 -31.8111 5.22853
C -32.8759 -31.5025 2.66841
C -33.1033 -30.4344 3.77664
H -33.1481 -31.0662 1.6974
H -33.5591 -32.3447 2.82254
F -32.6108 -30.8552 4.96004
F -32.3884 -29.3306 3.46313
C -30.278 -31.0734 2.56109
C -31.4435 -32.105 2.57025
H -30.137 -30.6891 3.58067
H -30.5707 -30.211 1.94853
F -31.4238 -32.8502 1.4425
F -31.2699 -32.975 3.58921
C -27.7965 -30.536 2.27882
C -28.9091 -31.5918 2.04283
H -27.5306 -30.5399 3.34485
H -28.206 -29.5354 2.08326
F -29.001 -31.879 0.727248
F -28.5714 -32.7314 2.68298
C -25.8254 -32.0991 1.56252
C -26.4988 -30.7025 1.44263
H -26.4988 -32.8426 1.11727
H -25.7638 -32.383 2.61954
F -26.7526 -30.3969 0.15167
F -25.6537 -29.7396 1.86851
C -23.2508 -31.3484 1.28294
C -24.4366 -32.2729 0.872271
H -23.4768 -30.3135 1.00204
H -22.3871 -31.6135 0.658904
F -24.6037 -32.1404 -0.463322
F -24.0559 -33.558 1.04229
C -21.7799 -30.2553 3.05635
C -22.7934 -31.395 2.76639
H -22.2634 -29.2951 2.8275
H -20.9514 -30.3423 2.34053
F -22.2346 -32.5919 3.0387
F -23.8614 -31.2625 3.57621
C -22.2264 -30.1035 5.64245
C -21.1819 -30.1826 4.49051
H -23.0009 -29.377 5.35138
H -22.7374 -31.0668 5.74641
F -20.3927 -29.0885 4.51314
F -20.3442 -31.2226 4.67729
C -20.5767 -30.5536 7.69133
C -21.6957 -29.6869 7.04358
H -20.2663 -30.0421 8.61388
H -19.6887 -30.5421 7.04698
F -21.2437 -28.4125 6.9932
F -22.756 -29.6134 7.8793
C -19.7529 -32.6381 8.87783
C -20.9211 -32.0228 8.05854
H -19.3813 -31.8826 9.58059
H -18.9186 -32.8451 8.19439
F -21.1024 -32.7458 6.93364
F -22.0805 -32.0792 8.74275
C -18.8253 -34.603 10.3086
C -20.0743 -33.9269 9.67841
H -18.1494 -34.908 9.49843
H -19.1473 -35.5384 10.7882
F -20.6502 -34.8379 8.8636
F -20.9797 -33.6802 10.6499
C -17.0333 -34.6917 12.1187
C -18.007 -33.7684 11.3361
H -17.6129 -35.5089 12.571
H -16.3677 -35.1762 11.3862
F -18.8214 -33.1205 12.1945
F -17.3041 -32.8195 10.6761
C -16.9631 -33.5105 14.4533
C -16.16 -34.0514 13.2333
H -17.3262 -32.5059 14.2073
H -17.8538 -34.137 14.5959
F -15.3998 -33.0648 12.7088
F -15.2946 -35.0194 13.6138
C -16.7601 -32.5202 16.8923
C -16.1781 -33.4545 15.7941
H -16.1419 -32.6512 17.7878
H -16.6098 -31.4782 16.5801
F -14.9172 -33.0231 15.5667
F -16.0691 -34.701 16.2999
C -18.7705 -31.7717 18.4036
C -18.2606 -32.698 17.2582
H -18.4428 -30.745 18.1838
H -19.8665 -31.7413 18.3399
F -18.5572 -33.9829 17.5306
F -19.0018 -32.3769 16.1747
C -19.2897 -33.2463 20.4896
C -18.3992 -32.1267 19.8803
H -20.3301 -33.0435 20.2184
H -19.0393 -34.1951 19.9954
F -17.1003 -32.4677 19.9815
F -18.5404 -30.9888 20.6014
C -19.7228 -32.3122 22.929
C -19.2175 -33.4862 22.0309
H -20.557 -31.8019 22.43
H -18.9211 -31.5669 23.0199
F -17.9493 -33.7768 22.3909
F -19.94 -34.6028 22.2687
C -20.4074 -31.4924 25.2858
C -20.1686 -32.725 24.3654
H -21.2855 -30.9528 24.9055
H -19.5656 -30.7923 25.1884
F -21.3255 -33.4125 24.2856
F -19.2518 -33.5371 24.9331
C -19.2763 -31.8216 27.5862
C -20.6206 -31.7858 26.8057
H -18.5596 -32.4663 27.064
H -18.8393 -30.8114 27.5607
F -21.339 -32.9091 26.9962
F -21.3756 -30.7758 27.3
C -17.9205 -32.1547 29.7191
C -19.3282 -32.2689 29.0744
H -17.4196 -31.2476 29.3395
H -17.308 -32.9827 29.3445
F -20.2295 -31.5389 29.7616
F -19.7099 -33.5628 29.1592
C -16.4716 -32.6656 31.7716
C -17.8408 -32.1273 31.2703
H -16.535 -33.7554 31.8547
H -15.7213 -32.5115 30.9896
F -18.041 -30.8577 31.6719
F -18.814 -32.8634 31.8467
C -16.8323 -32.0162 34.3258
C -15.9082 -32.0406 33.0832
H -16.3823 -31.3672 35.093
H -17.7699 -31.5142 34.0586
F -14.7671 -32.6849 33.4029
F -15.5162 -30.774 32.8243
C -18.5692 -33.3124 35.5966
C -17.1413 -33.384 34.9944
H -18.6263 -32.441 36.2661
H -19.257 -33.1032 34.7641
F -17.0631 -34.4138 34.1305
F -16.2332 -33.6221 35.964
C -18.3427 -34.9199 37.623
C -19.1251 -34.5492 36.3395
H -17.4291 -35.4503 37.3141
H -17.967 -34.0061 38.0832
F -19.1746 -35.6243 35.5183
F -20.4017 -34.2118 36.6323
C -18.9989 -35.2706 40.1324
C -19.0866 -35.7924 38.6793
H -17.9505 -35.0543 40.38
H -19.2961 -36.083 40.7949
F -20.3762 -36.0662 38.4007
F -18.496 -37.0114 38.6748
C -19.684 -33.6058 41.9726
C -19.8611 -34.0354 40.4926
H -18.6204 -33.3416 42.1189
H -20.2357 -32.6715 42.1434
F -21.167 -34.2221 40.2379
F -19.4892 -32.9873 39.7278
C -21.5009 -35.2551 43.0071
C -20.0825 -34.6131 43.105
H -21.4687 -35.9994 42.197
H -22.2337 -34.4944 42.7113
F -19.1491 -35.5937 43.1668
F -19.929 -33.9127 44.2464
C -23.5936 -36.2026 44.175
C -22.043 -36.0067 44.2638
H -24.0472 -35.1966 44.1983
H -23.8669 -36.6398 43.1966
F -21.4095 -37.1933 44.3781
F -21.7768 -35.3427 45.4107
C -23.7353 -38.443 45.6458
C -24.3067 -37.0176 45.2969
H -23.0851 -38.8041 44.8406
H -23.094 -38.3692 46.5425
F -25.604 -37.0938 44.9222
F -24.315 -36.2848 46.436
C -25.556 -39.4627 47.2602
C -24.7677 -39.5845 45.9169
H -25.5341 -38.4112 47.5923
H -26.6247 -39.6702 47.0714
F -25.6383 -39.7154 44.8732
F -24.0775 -40.7504 45.8672
C -25.4151 -41.8784 48.2342
C -25.0629 -40.3811 48.414
H -24.7503 -42.3888 47.5379
H -25.3582 -42.4234 49.186
F -25.6597 -39.9849 49.5582
F -23.7335 -40.2211 48.6196
