26
XYZ file generated by Avogadro.
C     -0.51750    1.06660   -0.35530
C     -1.70580    0.18550    0.07680
H     -0.68200    2.09560   -0.02770
O     -1.42550   -1.18810   -0.28430
C     -0.19670   -1.71120    0.27620
H      0.74160    0.58120    1.34900
O      0.92190   -0.87720   -0.11640
H      2.10750    1.19950   -1.33800
C      0.78820    0.51480    0.25810
H     -0.44640    1.06980   -1.44610
H     -1.84930    0.24740    1.15920
H      2.93370    0.86380    0.19240
C      0.01880   -3.13690   -0.26820
H      2.27890   -5.72710    0.36200
H      0.53410   -5.86610    0.09190
H      1.58800   -5.25970   -1.20020
H     -0.27950   -1.70910    1.37420
C      1.23020   -3.82280    0.39930
H     -0.88090   -3.72910   -0.08330
H      0.16660   -3.09490   -1.35040
C      1.41780   -5.26000   -0.12100
H      2.13830   -3.24880    0.19940
H      1.08730   -3.84700    1.48220
C      2.02510    1.27700   -0.25130
H     -2.61960    0.50690   -0.42960
H      1.96220    2.33370    0.01800
