1202
xyz file written from pySIMM system module
C 30.6508 76.9945 -14.9464
C 30.4172 75.6214 -15.603
C 31.0388 74.496 -14.7904
H 30.8473 75.6097 -16.6085
H 29.3461 75.4258 -15.675
C 30.8431 73.1688 -15.5147
H 30.5491 74.4705 -13.8135
H 32.103 74.6918 -14.645
H 31.3218 73.2271 -16.4973
H 29.7762 72.9913 -15.6776
O 32.0332 77.3357 -15.0413
H 30.3305 76.9735 -13.8944
H 30.0507 77.7587 -15.4605
C 36.2702 78.5714 -14.891
C 34.8861 77.9868 -14.5401
C 33.8019 79.0332 -14.7661
H 34.8564 77.668 -13.4944
H 34.6523 77.1284 -15.1705
C 32.4188 78.5269 -14.3398
H 33.8102 79.3174 -15.819
H 34.0619 79.9158 -14.1772
H 32.4252 78.3393 -13.2607
H 31.6983 79.3298 -14.5337
O 37.2357 77.5228 -14.8343
H 36.5261 79.3718 -14.1794
H 36.2571 79.0117 -15.8998
C 41.4449 69.4687 -7.59481
C 40.4984 70.6094 -7.93975
H 40.5377 70.8193 -9.01446
H 39.4793 70.321 -7.68085
C 40.901 71.8604 -7.15149
H 40.9765 71.5696 -6.09897
H 41.9024 72.1661 -7.47282
C 39.9117 73.0537 -7.27183
H 38.9258 72.7277 -6.91578
H 40.2408 73.8478 -6.58832
C 39.7656 73.6565 -8.69563
H 40.7561 73.9356 -9.07776
H 39.3603 72.8969 -9.37542
C 38.8375 74.8955 -8.69489
H 37.9397 74.6658 -8.10623
H 39.3393 75.7293 -8.18699
C 38.3764 75.3428 -10.1021
H 37.8222 74.5216 -10.5709
H 37.6645 76.1704 -9.98786
C 39.5168 75.7903 -11.0459
H 40.0596 76.6339 -10.5995
H 40.236 74.9721 -11.1765
C 38.9581 76.1989 -12.4275
H 38.3817 75.3614 -12.8416
H 38.2599 77.036 -12.2978
C 40.0658 76.5979 -13.4303
H 40.5604 77.517 -13.0899
H 40.8334 75.8136 -13.4489
C 39.5339 76.792 -14.8694
H 40.3746 77.0025 -15.5431
H 39.0715 75.8617 -15.2262
C 38.5247 77.937 -14.9776
N 41.0707 68.3567 -8.45406
H 41.336 69.1948 -6.53908
H 42.4832 69.7665 -7.78801
H 40.0942 68.1281 -8.25529
O 38.8634 79.1039 -15.1191
C 41.4085 67.6178 -11.5758
C 42.2852 66.5894 -10.8193
C 41.6678 66.1093 -9.50291
H 43.2656 67.0177 -10.601
H 42.4539 65.7069 -11.439
C 41.9 67.1262 -8.35984
H 42.1731 65.175 -9.24477
H 40.6075 65.8887 -9.64674
H 41.6792 66.6193 -7.41237
H 42.9666 67.3781 -8.33669
O 40.2729 66.9909 -12.1846
H 42.0106 68.1122 -12.3502
H 41.0648 68.4173 -10.9092
C 36.907 65.2891 -14.4873
C 38.1391 65.3838 -13.5643
C 39.2954 66.0807 -14.2665
H 38.4734 64.3935 -13.2443
H 37.8937 65.9649 -12.6716
C 40.5266 66.1984 -13.362
H 38.9601 67.0706 -14.5868
H 39.5437 65.5046 -15.1615
H 40.851 65.1934 -13.0726
H 41.3337 66.6434 -13.9547
O 35.7386 65.0512 -13.6976
H 37.0423 64.5031 -15.2449
H 36.7716 66.24 -15.0226
C 32.3018 62.6935 -15.2438
C 33.1947 63.491 -14.2684
C 34.6092 62.9247 -14.2302
H 32.7814 63.4403 -13.2562
H 33.2495 64.5423 -14.5641
C 35.4953 63.7055 -13.2538
H 35.0255 62.9574 -15.2408
H 34.5475 61.8787 -13.9215
H 35.0048 63.7346 -12.2751
H 36.4381 63.1645 -13.1166
O 30.9074 62.9773 -15.0377
H 32.4538 61.6166 -15.0789
H 32.5917 62.8993 -16.284
C 30.3441 67.126 -17.8531
C 29.9647 66.3314 -16.5842
C 30.6692 64.9792 -16.5071
H 30.2188 66.9145 -15.6934
H 28.8854 66.1519 -16.5646
C 30.4335 64.3369 -15.1336
H 31.7375 65.1209 -16.6842
H 30.2694 64.3469 -17.304
H 30.8989 64.9568 -14.3593
H 29.3579 64.3389 -14.93
O 31.7062 67.5283 -17.7268
H 29.6947 68.0109 -17.9373
H 30.1987 66.5162 -18.7579
C 37.0394 66.107 -9.56465
C 35.668 66.781 -9.52024
H 34.8874 66.0574 -9.25988
H 35.6554 67.5955 -8.79351
C 35.3698 67.3822 -10.9026
H 36.1709 68.0888 -11.1393
H 35.4124 66.5717 -11.6304
C 33.9868 68.0879 -10.9702
H 33.2026 67.3398 -10.7979
H 33.9114 68.8098 -10.1461
C 33.6858 68.8395 -12.296
H 32.6831 69.2796 -12.2211
H 34.3891 69.674 -12.4018
C 33.7586 67.9397 -13.5552
H 34.8074 67.7017 -13.77
H 33.2536 66.9879 -13.3451
C 33.1097 68.561 -14.8178
H 33.2006 67.8317 -15.6275
H 32.0357 68.6988 -14.6362
C 33.7339 69.9098 -15.2595
H 33.6484 70.6163 -14.4246
H 34.8074 69.7883 -15.4519
C 33.038 70.5661 -16.4822
H 31.9714 70.3081 -16.5059
H 33.0783 71.6487 -16.3224
C 33.6925 70.3054 -17.8641
H 33.2291 70.9784 -18.5958
H 34.7509 70.5913 -17.8172
C 33.5877 68.8592 -18.3963
H 34.1342 68.7814 -19.343
H 34.0812 68.1642 -17.7062
C 32.1404 68.4257 -18.648
N 37.2886 65.5226 -8.26194
H 37.8201 66.8281 -9.83229
H 37.0207 65.3102 -10.3185
H 36.4216 65.0813 -7.98262
O 31.4792 68.8057 -19.602
C 35.2626 73.9631 -14.6334
C 36.0557 72.9703 -13.8038
H 35.9595 71.9591 -14.2151
H 37.1142 73.2488 -13.8035
C 35.5225 72.9903 -12.3692
H 35.5936 74.0186 -11.9995
H 34.4599 72.7247 -12.4028
C 36.2926 72.0254 -11.4335
H 36.3167 71.0306 -11.8956
H 37.3364 72.3551 -11.3511
C 35.676 71.906 -10.0173
H 35.6002 72.8985 -9.55434
H 34.6571 71.5059 -10.1018
C 36.5271 70.9815 -9.12218
H 36.7418 70.0573 -9.67346
H 37.4914 71.4605 -8.91594
C 35.8348 70.6127 -7.79172
H 35.6086 71.5181 -7.21374
H 34.8782 70.1238 -8.01699
C 36.7215 69.6629 -6.95509
H 37.2189 68.9725 -7.64003
H 37.5148 70.2412 -6.46547
C 35.9309 68.8697 -5.88681
H 35.5794 69.5769 -5.12453
H 35.0333 68.4243 -6.33482
C 36.7569 67.755 -5.19138
H 37.7695 68.1148 -4.96612
H 36.2868 67.542 -4.2227
C 36.821 66.4219 -5.97929
H 37.2671 65.6437 -5.34609
H 35.8042 66.0866 -6.22272
C 37.6473 66.5205 -7.2622
N 35.7447 73.8359 -15.9857
H 35.4225 74.9813 -14.2624
H 34.1954 73.7173 -14.5832
H 35.622 72.8623 -16.2379
O 38.8449 66.7305 -7.28284
C 30.5564 78.3191 -19.0759
C 31.8238 78.4209 -18.2403
H 31.6261 79.024 -17.3479
H 32.1428 77.4287 -17.9102
C 32.9543 79.099 -19.0262
H 32.6307 80.1169 -19.266
H 33.8123 79.1804 -18.3508
C 33.3904 78.3608 -20.3198
H 33.6286 77.3276 -20.0534
H 32.5576 78.3217 -21.0341
C 34.6037 79.0352 -21.0137
H 34.3068 80.0459 -21.323
H 35.4188 79.1828 -20.2996
C 35.1179 78.2815 -22.2653
H 34.3252 78.3188 -23.0235
H 35.964 78.8375 -22.6888
C 35.5312 76.794 -22.081
H 34.698 76.2092 -21.6809
H 35.6961 76.3933 -23.0892
C 36.8388 76.5331 -21.2807
H 37.2173 75.542 -21.5618
H 37.6032 77.2491 -21.6078
C 36.7447 76.5771 -19.734
H 37.7575 76.456 -19.3284
H 36.4103 77.5596 -19.395
C 35.85 75.485 -19.1066
H 34.856 75.4903 -19.5637
H 36.2891 74.4964 -19.295
C 35.6982 75.7136 -17.5889
H 36.6908 75.8089 -17.1286
H 35.1768 76.6622 -17.4114
C 34.9135 74.6017 -16.8892
N 29.4763 77.8997 -18.191
H 30.6943 77.5837 -19.8764
H 30.3223 79.2953 -19.5194
H 29.7295 76.9927 -17.7962
O 34.1877 73.8098 -17.4577
C 25.8957 75.6565 -16.5247
C 26.9393 75.9678 -17.617
C 26.9845 77.4685 -17.8641
H 26.6718 75.4739 -18.5535
H 27.9325 75.624 -17.3277
C 28.1272 77.8628 -18.8197
H 27.0895 77.9799 -16.9033
H 26.0222 77.7557 -18.2947
H 27.89 78.8613 -19.2063
H 28.1195 77.1806 -19.6783
O 25.631 74.253 -16.438
H 24.953 76.1676 -16.7675
H 26.2314 76.0459 -15.5525
C 24.196 71.4756 -16.9573
C 25.6227 71.1453 -16.4605
C 26.092 72.0716 -15.3417
H 26.348 71.1747 -17.2761
H 25.6348 70.1289 -16.0565
C 26.6393 73.4212 -15.8398
H 26.8876 71.5496 -14.8062
H 25.2664 72.2213 -14.6406
H 27.0849 73.9336 -14.9796
H 27.4436 73.2401 -16.5595
O 23.8635 70.6637 -18.0867
H 24.1252 72.5252 -17.2621
H 23.4619 71.3296 -16.1521
C 19.9115 68.9485 -19.1468
C 21.0836 69.4103 -18.2588
C 22.3993 68.7929 -18.7167
H 20.91 69.1284 -17.2163
H 21.1801 70.4988 -18.3134
C 23.5529 69.2816 -17.8336
H 22.5666 69.055 -19.764
H 22.3025 67.7072 -18.6437
H 23.2899 69.1131 -16.7829
H 24.4396 68.6743 -18.0437
O 18.7148 69.4704 -18.5698
H 19.857 67.8506 -19.1854
H 20.0637 69.3182 -20.1732
C 26.0198 72.7422 -19.9554
C 25.1091 73.7439 -20.6498
H 25.3186 74.7593 -20.3007
H 25.2791 73.7007 -21.7301
C 23.6518 73.3712 -20.3523
H 23.4582 72.3862 -20.7884
H 23.547 73.2802 -19.2678
C 22.6282 74.4098 -20.8849
H 22.8672 75.3921 -20.458
H 22.7451 74.5084 -21.9721
C 21.1419 74.077 -20.5784
H 20.5143 74.8372 -21.061
H 20.8829 73.114 -21.0371
C 20.8147 74.039 -19.0648
H 21.2599 73.144 -18.6108
H 21.2795 74.9042 -18.5748
C 19.2963 74.0713 -18.7614
H 19.1622 74.1533 -17.6748
H 18.8559 74.9758 -19.2005
C 18.5311 72.8268 -19.2678
H 18.586 72.7701 -20.3623
H 19.0292 71.9409 -18.8687
C 17.0472 72.8458 -18.8268
H 16.9898 72.8396 -17.7305
H 16.6024 73.795 -19.1527
C 16.1765 71.693 -19.3914
H 15.1295 71.939 -19.1725
H 16.2557 71.6563 -20.4856
C 16.4621 70.2983 -18.7831
H 16.599 70.3812 -17.6961
H 15.587 69.6537 -18.9348
C 17.6627 69.5957 -19.4202
N 27.3993 73.0714 -20.2946
H 25.7797 71.7253 -20.2886
H 25.8787 72.8081 -18.8717
H 27.5594 74.0322 -19.9949
O 17.6614 69.2081 -20.5801
C 31.7601 74.1136 -19.3586
C 30.2292 73.9337 -19.468
C 29.8804 72.5287 -19.957
H 29.7973 74.6625 -20.1589
H 29.7735 74.0783 -18.4849
C 28.4086 72.1728 -19.6718
H 30.5143 71.8212 -19.419
H 30.0985 72.4632 -21.0252
H 28.2485 71.1447 -20.0192
H 28.2776 72.1574 -18.5843
O 32.3535 74.2583 -20.6579
H 32.1907 73.2589 -18.8175
H 31.986 75.0112 -18.7664
C 33.6462 69.7777 -22.2638
C 34.1811 71.1001 -21.6882
C 33.0148 72.0629 -21.5441
H 34.9394 71.5296 -22.348
H 34.6252 70.9322 -20.7044
C 33.4718 73.399 -20.9569
H 32.2931 71.5825 -20.886
H 32.5634 72.204 -22.5293
H 34.0722 73.2111 -20.0602
H 34.126 73.8854 -21.687
O 34.6244 68.7537 -22.1088
H 33.3934 69.9001 -23.3273
H 32.7261 69.4844 -21.7375
C 36.913 65.5838 -24.2362
C 36.0974 66.7818 -23.7168
C 35.2166 66.3943 -22.5336
H 35.4739 67.1897 -24.5179
H 36.7626 67.5834 -23.3793
C 34.1103 67.4286 -22.3125
H 35.8425 66.2868 -21.6444
H 34.7529 65.4259 -22.7365
H 33.449 67.4055 -23.1869
H 33.5139 67.1263 -21.4442
O 36.0259 64.7383 -24.9692
H 37.3852 65.0434 -23.4011
H 37.7148 65.9403 -24.8999
C 40.2129 55.3077 -31.9596
C 41.2968 56.3491 -31.7069
H 42.1438 55.8748 -31.1977
H 41.6657 56.7721 -32.6458
C 40.7645 57.4821 -30.8192
H 40.2581 57.0219 -29.964
H 41.6268 58.0328 -30.4299
C 39.8119 58.4676 -31.5514
H 40.3587 58.9616 -32.3642
H 38.9842 57.9149 -32.0128
C 39.2147 59.5361 -30.6077
H 38.7134 59.0191 -29.7819
H 40.0226 60.133 -30.1636
C 38.221 60.472 -31.3372
H 38.7814 61.1022 -32.0398
H 37.515 59.8826 -31.9363
C 37.4305 61.3769 -30.3657
H 38.144 61.8628 -29.6899
H 36.942 62.1763 -30.9376
C 36.3505 60.6005 -29.5652
H 35.6408 60.1489 -30.2699
H 36.8063 59.7722 -29.0108
C 35.5636 61.4737 -28.5624
H 35.0399 62.2741 -29.1005
H 34.7929 60.8519 -28.0883
C 36.4659 62.0834 -27.4667
H 37.0531 61.2882 -26.9883
H 37.1754 62.7834 -27.9238
C 35.662 62.8444 -26.3959
H 34.9971 63.5675 -26.8886
H 35.0238 62.154 -25.8294
C 36.5823 63.5887 -25.4252
N 40.792 54.3281 -32.8488
H 39.3433 55.7786 -32.4297
H 39.9052 54.8394 -31.0162
H 41.0231 54.8301 -33.6976
O 37.7376 63.2523 -25.1987
C 45.6365 51.2389 -41.7593
C 45.2323 49.8789 -41.2076
H 44.9778 49.1989 -42.029
H 46.0615 49.4296 -40.6526
C 44.0011 49.9942 -40.2911
H 43.1622 50.283 -40.9316
H 43.7714 48.9985 -39.8998
C 44.1076 51.0216 -39.1253
H 44.2461 52.0236 -39.5479
H 43.1439 51.0672 -38.6037
C 45.2446 50.7608 -38.0974
H 46.2054 50.6977 -38.6229
H 45.3316 51.6342 -37.4391
C 45.0614 49.4842 -37.2321
H 45.1424 48.5986 -37.8744
H 45.8989 49.4255 -36.5251
C 43.7328 49.4039 -36.4334
H 42.8957 49.2707 -37.1304
H 43.7538 48.5064 -35.8018
C 43.4701 50.645 -35.5485
H 44.3131 50.7977 -34.8621
H 43.4127 51.5356 -36.1855
C 42.1584 50.5468 -34.7381
H 41.3432 50.2226 -35.3981
H 42.2593 49.7916 -33.948
C 41.796 51.9194 -34.1301
H 42.6208 52.2706 -33.496
H 41.6988 52.6404 -34.9524
C 40.4872 51.9124 -33.3051
H 39.7587 51.225 -33.754
H 40.6837 51.5532 -32.2864
C 39.8395 53.3014 -33.2367
N 46.5286 51.036 -42.8784
H 46.1383 51.812 -40.971
H 44.7473 51.7914 -42.0873
H 47.2747 50.4253 -42.5638
O 39.184 53.7569 -34.1522
C 50.1946 63.7403 -45.8558
C 50.4354 62.6198 -46.8547
H 50.0552 62.8876 -47.8467
H 51.5137 62.4458 -46.9322
C 49.7453 61.3394 -46.3701
H 50.0029 61.1927 -45.316
H 48.6641 61.5071 -46.4208
C 50.1401 60.08 -47.1885
H 50.0698 60.3066 -48.2599
H 51.1925 59.8398 -46.9843
C 49.2612 58.8404 -46.8773
H 49.1922 58.7153 -45.7892
H 48.2433 59.0171 -47.249
C 49.8351 57.5476 -47.5084
H 50.0403 57.7252 -48.5719
H 50.8008 57.3219 -47.038
C 48.9145 56.306 -47.3885
H 48.0425 56.4376 -48.0427
H 49.4608 55.4325 -47.7676
C 48.4233 56.0203 -45.949
H 49.2671 56.074 -45.2487
H 47.7102 56.8018 -45.6561
C 47.7445 54.6372 -45.8146
H 47.0598 54.4789 -46.6582
H 48.5073 53.8494 -45.8654
C 46.9459 54.5191 -44.4966
H 47.5778 54.8017 -43.6441
H 46.1264 55.2488 -44.526
C 46.3422 53.1133 -44.2669
H 45.3309 53.232 -43.8581
H 46.2368 52.5632 -45.2112
C 47.1622 52.283 -43.2721
N 50.7634 64.9475 -46.4442
H 50.6891 63.5045 -44.9061
H 49.1197 63.8734 -45.6809
H 50.2732 65.1063 -47.3227
O 48.3624 52.1143 -43.318
C 50.8217 68.9833 -44.2973
C 51.8955 68.4228 -45.2542
C 51.3663 67.4115 -46.2649
H 52.7063 67.9474 -44.6934
H 52.3402 69.2388 -45.8325
C 50.7723 66.1597 -45.5785
H 52.2054 67.1334 -46.9055
H 50.6089 67.8981 -46.8848
H 51.3646 65.9448 -44.6808
H 49.7555 66.3981 -45.244
O 51.4523 69.9463 -43.4511
H 50.3859 68.1754 -43.6906
H 50.0086 69.456 -44.8689
C 57.6277 73.7149 -31.3492
C 56.8375 73.1145 -32.5054
H 56.2031 72.3125 -32.1125
H 56.182 73.8675 -32.9506
C 57.765 72.5327 -33.587
H 58.2739 73.3601 -34.0911
H 58.5344 71.9334 -33.0881
C 57.0402 71.6423 -34.637
H 57.8023 71.1902 -35.2842
H 56.5427 70.81 -34.1214
C 56.0056 72.3803 -35.5308
H 55.2593 72.8824 -34.9025
H 56.5179 73.1595 -36.1104
C 55.2809 71.4067 -36.4892
H 56.0274 70.845 -37.0656
H 54.7156 70.6749 -35.8977
C 54.3233 72.1251 -37.4686
H 53.5928 72.7202 -36.9049
H 54.9011 72.8246 -38.0867
C 53.5765 71.1247 -38.3829
H 54.306 70.4547 -38.8563
H 52.9142 70.4971 -37.7721
C 52.752 71.8273 -39.4862
H 52.0152 72.4988 -39.0263
H 53.4226 72.4516 -40.0909
C 52.0253 70.8173 -40.4056
H 52.7447 70.073 -40.7713
H 51.2687 70.2738 -39.8246
C 51.3545 71.5053 -41.6144
H 50.6287 72.2526 -41.2683
H 52.1102 72.0391 -42.2063
C 50.6347 70.496 -42.5122
N 58.3634 74.8771 -31.8368
H 58.3146 72.9703 -30.9301
H 56.9257 74.0232 -30.5644
H 57.6985 75.4531 -32.3505
O 49.4678 70.1757 -42.3453
C 61.3407 77.2587 -29.2716
C 60.3344 77.8372 -30.2956
C 59.8812 76.8531 -31.3697
H 60.8166 78.6583 -30.8358
H 59.4563 78.262 -29.8004
C 59.0577 75.6818 -30.794
H 60.7646 76.4828 -31.8945
H 59.2687 77.4152 -32.0793
H 59.7327 75.0372 -30.2194
H 58.3207 76.0917 -30.0922
O 60.6372 76.5889 -28.222
H 61.926 78.0871 -28.8443
H 62.051 76.5785 -29.7658
C 53.5271 78.2233 -15.7525
C 54.1504 78.7101 -17.0597
H 53.3643 78.9047 -17.7979
H 54.6638 79.6569 -16.8649
C 55.1749 77.7061 -17.6127
H 55.9566 77.5775 -16.8582
H 54.6791 76.7369 -17.7349
C 55.7947 78.1449 -18.9649
H 54.983 78.4079 -19.6553
H 56.3911 79.0549 -18.8152
C 56.6761 77.0532 -19.625
H 57.4925 76.7746 -18.9457
H 56.0729 76.1513 -19.793
C 57.261 77.5415 -20.968
H 56.4446 77.9146 -21.5995
H 57.9315 78.39 -20.7791
C 58.0222 76.4397 -21.7396
H 58.8079 76.0145 -21.1019
H 57.3295 75.6251 -21.9878
C 58.6545 77.0027 -23.0335
H 57.8789 77.5035 -23.628
H 59.3941 77.7679 -22.7646
C 59.3305 75.9206 -23.9061
H 60.0234 75.3285 -23.2944
H 58.5646 75.2318 -24.2861
C 60.1044 76.5446 -25.0917
H 59.4493 77.2388 -25.6342
H 60.9441 77.136 -24.7027
C 60.6378 75.4833 -26.0777
H 61.2852 74.7698 -25.5508
H 59.8025 74.9108 -26.5021
C 61.4324 76.13 -27.2151
N 52.7171 77.0518 -16.045
H 52.897 79.0198 -15.3398
H 54.3198 77.9895 -15.0311
H 53.3549 76.3318 -16.3595
O 62.6394 76.3027 -27.1602
C 44.8077 76.7779 -5.28264
C 45.8044 76.5759 -6.41456
H 46.7207 77.1527 -6.24096
H 46.0661 75.5152 -6.47997
C 45.1591 77.0077 -7.73763
H 44.1396 76.6072 -7.75212
H 45.0757 78.0997 -7.7294
C 45.9217 76.5237 -9.00274
H 46.9644 76.8609 -8.94929
H 45.9384 75.4252 -9.01376
C 45.2716 77.0425 -10.313
H 44.1877 76.8784 -10.2582
H 45.4177 78.128 -10.3822
C 45.7824 76.3711 -11.6105
H 45.5258 75.304 -11.5939
H 45.2301 76.808 -12.4525
C 47.2996 76.5265 -11.873
H 47.5984 77.5717 -11.7216
H 47.8629 75.9184 -11.1536
C 47.6635 76.1034 -13.3155
H 47.2377 75.1132 -13.5269
H 47.2003 76.8059 -14.0215
C 49.1875 76.0508 -13.5657
H 49.6601 76.9715 -13.1998
H 49.6134 75.2176 -12.9912
C 49.5085 75.8696 -15.0686
H 48.851 75.0963 -15.4875
H 49.2816 76.7996 -15.6065
C 50.9688 75.4558 -15.3439
H 51.188 74.5132 -14.8247
H 51.0822 75.2552 -16.4179
C 51.9838 76.5169 -14.9
N 45.4781 76.3912 -4.06226
H 43.9373 76.1371 -5.4683
H 44.4764 77.8222 -5.22384
H 46.0606 75.601 -4.31656
O 52.7529 76.3209 -13.9799
C 51.2021 77.5603 8.30508
C 50.5788 78.662 7.45302
H 50.1964 79.4729 8.08366
H 51.3381 79.0724 6.78052
C 49.4359 78.0725 6.61133
H 49.7837 77.1107 6.22131
H 48.5972 77.8637 7.28367
C 48.9801 78.9677 5.42234
H 48.6989 79.9613 5.79505
H 49.8314 79.114 4.74355
C 47.7892 78.3586 4.63022
H 47.9352 77.2738 4.54256
H 46.8629 78.5086 5.19934
C 47.6335 78.9335 3.20034
H 47.6045 80.0301 3.22879
H 48.5222 78.6552 2.6194
C 46.362 78.4046 2.48641
H 46.1332 77.3935 2.84847
H 45.5032 79.0355 2.75296
C 46.5217 78.3462 0.94752
H 46.7523 79.3445 0.553771
H 47.379 77.7026 0.712356
C 45.2626 77.7899 0.241455
H 44.8499 76.9615 0.831641
H 44.4899 78.5689 0.204318
C 45.5581 77.2708 -1.18648
H 46.0032 78.0714 -1.79228
H 46.2979 76.4615 -1.12467
C 44.2754 76.7483 -1.87556
H 43.693 76.1541 -1.15852
H 43.6427 77.5926 -2.17799
C 44.5333 75.8587 -3.09662
N 52.2955 78.1514 9.04951
H 51.5754 76.7734 7.63933
H 50.4616 77.1248 8.98827
H 52.7803 78.7513 8.39185
O 44.7103 74.658 -3.03463
C 64.2121 76.0828 15.016
C 63.0335 76.8204 15.6372
H 62.9638 76.6009 16.7084
H 63.174 77.8986 15.5129
C 61.7399 76.404 14.9187
H 61.9125 76.5392 13.8466
H 61.5855 75.3333 15.0886
C 60.4781 77.2055 15.3494
H 60.2319 76.9552 16.389
H 60.7073 78.2794 15.3286
C 59.2417 76.9454 14.4412
H 59.4963 77.203 13.4052
H 58.9974 75.8758 14.4566
C 57.9988 77.7621 14.8745
H 57.6518 77.3993 15.8506
H 58.2916 78.8099 15.0202
C 56.8194 77.7282 13.8639
H 56.0162 78.3638 14.26
H 57.1392 78.1838 12.9175
C 56.2526 76.3107 13.5911
H 56.9451 75.751 12.9484
H 56.1949 75.7631 14.5404
C 54.8361 76.3117 12.955
H 54.4755 75.2753 12.9243
H 54.1445 76.86 13.6078
C 54.7713 76.893 11.5205
H 55.4404 76.3058 10.8785
H 55.1393 77.927 11.5133
C 53.3321 76.8611 10.9416
H 52.6957 77.5747 11.4822
H 52.8905 75.8686 11.0992
C 53.2777 77.1512 9.43479
N 65.4231 76.6478 15.5697
H 64.2083 76.2217 13.9286
H 64.1443 75.0108 15.2384
H 65.3817 76.5226 16.5744
O 54.253 77.3149 8.72539
C 74.5056 84.5824 19.1996
C 73.8766 84.3759 17.826
H 73.3215 85.2759 17.5361
H 74.6543 84.2002 17.0774
C 72.9332 83.1606 17.8126
H 73.5432 82.2646 17.9673
H 72.2429 83.243 18.6601
C 72.1302 83.0592 16.4822
H 71.4642 83.9296 16.4325
H 72.8131 83.1537 15.6269
C 71.2635 81.7799 16.2982
H 70.916 81.406 17.2703
H 70.3664 82.0706 15.7368
C 72.0031 80.6565 15.5236
H 72.3957 81.0666 14.5837
H 72.8734 80.3281 16.1062
C 71.1258 79.4206 15.1872
H 71.7601 78.6757 14.6884
H 70.7614 78.9607 16.1138
C 69.9284 79.7493 14.2611
H 69.2039 80.3807 14.7909
H 70.2916 80.3352 13.4064
C 69.1936 78.5041 13.7106
H 68.4786 78.8504 12.9531
H 69.9074 77.8513 13.191
C 68.4272 77.6866 14.7788
H 69.1405 77.1281 15.3999
H 67.8793 78.3676 15.4433
C 67.4293 76.7119 14.1105
H 66.7472 77.2759 13.4598
H 67.9663 76.0051 13.4645
C 66.594 75.9178 15.1175
N 75.5123 85.6332 19.0342
H 74.983 83.6506 19.5227
H 73.7447 84.8739 19.9339
H 76.074 85.3427 18.238
O 67.0545 75.3298 16.0754
C 76.1326 87.5534 23.7319
C 76.6259 86.6095 22.6117
C 75.7482 86.6981 21.3675
H 76.6123 85.5753 22.9627
H 77.6564 86.8574 22.3394
C 76.3959 85.9109 20.2049
H 75.6188 87.7492 21.0993
H 74.7717 86.282 21.6254
H 77.2554 86.5024 19.867
H 76.8074 84.9712 20.5931
O 76.9723 88.7115 23.7994
H 76.1254 87.0321 24.7003
H 75.0979 87.8735 23.5431
C 80.8779 90.0576 25.6994
C 79.5766 89.5986 26.3889
C 78.3472 89.7595 25.5104
H 79.4058 90.2182 27.2756
H 79.6477 88.5589 26.7244
C 78.207 88.5948 24.5311
H 78.4129 90.7135 24.9826
H 77.4795 89.7858 26.1723
H 79.0524 88.6007 23.8368
H 78.2557 87.6542 25.0912
O 81.8938 89.9759 26.692
H 80.7671 91.094356 25.3448
H 81.1341 89.4214 24.8386
C 81.2358 97.70245600000001 35.6843
C 80.075 97.70585600000001 34.7002
H 79.1339 97.462956 35.2043
H 79.9626 98.69685600000001 34.254
C 80.3345 96.716356 33.5486
H 79.5221 96.831056 32.8222
H 81.2584 97.026256 33.0482
C 80.4431 95.22915600000002 33.9969
H 81.2462 95.13145600000001 34.7382
H 79.5137 94.94735600000001 34.509
C 80.7132 94.20555600000002 32.8619
H 80.5854 93.19865600000001 33.2804
H 79.959 94.31325600000001 32.0713
C 82.1354 94.31895600000001 32.2572
H 82.2331 95.261756 31.7033
H 82.8736 94.34725600000002 33.0684
C 82.4587 93.13155600000002 31.3198
H 82.3316 92.190256 31.8701
H 81.7343 93.126456 30.497
C 83.8983 93.19205600000001 30.7509
H 84.0168 94.11045600000001 30.1612
H 84.6117 93.25755600000001 31.5832
C 84.2767 91.968556 29.8766
H 85.3457 92.02665600000002 29.6299
H 84.1382 91.04435600000001 30.4533
C 83.4578 91.876956 28.5679
H 82.4056 91.69605600000001 28.8192
H 83.5027 92.83465600000001 28.0335
C 83.9424 90.7422 27.6378
H 84.9797 90.91045600000001 27.3188
H 83.9147 89.7875 28.178
C 83.0481 90.6264 26.404
N 81.0864 98.84915600000001 36.5695
H 82.1766 97.78335600000001 35.1285
H 81.2409 96.77395600000001 36.265
H 80.9176 99.65055600000001 35.9635
O 83.2625 91.22245600000001 25.3596
C 83.4404 100.57785600000001 40.478
C 83.5792 100.63405600000002 38.9415
C 82.2434 100.40925600000001 38.2319
H 84.331 99.91985600000001 38.5967
H 83.9301 101.62795600000001 38.6522
C 82.2828 99.09985600000002 37.4197
H 82.0952 101.24705600000001 37.5422
H 81.4215 100.42475600000002 38.9483
H 83.168 99.15155600000001 36.7725
H 82.4388 98.27105600000002 38.1211
O 83.3143 99.22345600000001 40.9129
H 82.568 101.16645600000001 40.8012
H 84.3316 101.02835600000002 40.9399
C 73.8206 96.65245600000002 45.9632
C 75.2869 96.72775600000001 46.3523
H 75.7767 95.760456 46.2043
H 75.7876 97.47265600000001 45.7302
C 75.4317 97.17085600000001 47.8133
H 75.0965 98.211656 47.8733
H 74.749 96.57545600000002 48.4312
C 76.875 97.02365600000002 48.3747
H 76.9092 97.43795600000001 49.3903
H 77.1057 95.95275600000001 48.4624
C 77.9785 97.69575600000002 47.5168
H 77.9149 97.306256 46.4957
H 77.8063 98.77815600000001 47.4598
C 79.3955 97.42265600000002 48.0685
H 79.48 97.853756 49.072
H 79.5461 96.34195600000001 48.1767
C 80.5266 97.99445600000001 47.1838
H 80.4451 99.08695600000001 47.1442
H 81.4903 97.77065600000002 47.66
C 80.5201 97.420556 45.7464
H 80.4543 96.32535600000001 45.7863
H 79.6336 97.77535600000002 45.2042
C 81.7751 97.83915600000002 44.9545
H 81.8084 98.93025600000001 44.9168
H 82.675 97.50525600000002 45.4882
C 81.7753 97.27195600000002 43.5155
H 81.7002 96.178256 43.5737
H 80.8861 97.62065600000001 42.9774
C 83.0442 97.62665600000001 42.7056
H 83.9453 97.39905600000002 43.291
H 83.0845 96.98255600000002 41.8167
C 83.0917 99.09315600000001 42.2519
N 73.7371 96.19315600000002 44.5766
H 73.3486 97.63195600000002 46.0806
H 73.3089 95.93715600000002 46.6175
H 74.397 95.419256 44.4985
O 83.0699 100.03945600000002 43.0294
C 75.0786 95.03195600000001 40.4377
C 74.9444 95.45115600000001 41.916
C 73.987 96.62625600000001 42.0674
H 75.9178 95.73935600000002 42.3199
H 74.5551 94.614956 42.5031
C 74.024 97.19135600000001 43.5025
H 72.9807 96.29355600000001 41.7974
H 74.2866 97.40065600000001 41.3566
H 75.016 97.63095600000001 43.6443
H 73.3021 98.01315600000001 43.5623
O 75.6795 93.74025600000002 40.3477
H 75.6666 95.769856 39.8742
H 74.0863 94.97645600000001 39.9681
C 77.9395 92.44015600000002 37.8055
C 77.2814 91.651356 38.9609
C 77.5743 92.19945600000001 40.365
H 77.6441 90.6201 38.9595
H 76.1974 91.60925600000002 38.8272
C 77.0995 93.64755600000001 40.5443
H 78.6483 92.130356 40.56
H 77.0713 91.55275600000002 41.0903
H 77.3603 93.965556 41.5599
H 77.6401 94.29965600000001 39.8526
O 79.3457 92.487356 38.0245
H 77.5188 93.453956 37.7422
H 77.7383 91.94035600000001 36.8477
C 81.3442 95.509656 39.6967
C 81.4817 93.99725600000001 39.4127
C 81.5021 93.600356 37.9352
H 80.7007 93.42805600000001 39.9325
H 82.4315 93.64855600000001 39.8258
C 80.0977 93.489456 37.3254
H 81.9938 92.627756 37.8579
H 82.1107 94.32015600000001 37.3789
H 79.6015 94.46445600000001 37.3596
H 80.1955 93.20755600000001 36.2712
O 80.0266 95.96305600000001 39.3907
H 82.091 96.076856 39.1243
H 81.5446 95.68205600000002 40.7648
C 82.3211 101.63435600000001 47.0041
C 80.988 101.88055600000001 46.3027
H 80.739 101.04485600000001 45.6408
H 80.196 101.95385600000002 47.0545
C 81.0534 103.198856 45.5205
H 81.2029 103.98315600000001 46.2693
H 81.9454 103.20085600000002 44.8847
C 79.793 103.56165600000001 44.6839
H 78.8794 103.30725600000001 45.2368
H 79.7738 104.65445600000001 44.5777
C 79.7322 102.98295600000002 43.2431
H 79.0943 103.65355600000001 42.6575
H 80.7195 103.01125600000002 42.7661
C 79.136 101.55725600000001 43.1533
H 79.8375 100.81895600000001 43.5568
H 78.2288 101.511756 43.771
C 78.7833 101.18315600000001 41.6926
H 78.2992 102.04575600000001 41.2151
H 79.7049 100.983956 41.1307
C 77.8273 99.96715600000002 41.605
H 78.3557 99.050756 41.9045
H 77.0072 100.104256 42.3225
C 77.192 99.80955600000001 40.2003
H 76.2882 99.19395600000001 40.2804
H 76.851 100.78975600000001 39.8458
C 78.1254 99.19085600000001 39.133
H 77.6491 99.33125600000001 38.1529
H 79.0721 99.73985600000002 39.0799
C 78.3508 97.66995600000001 39.3343
H 77.6745 97.26965600000001 40.101
H 78.0903 97.15375600000002 38.4019
C 79.7828 97.26745600000001 39.7074
N 83.2154 100.95875600000001 46.0656
H 82.1673 101.00355600000002 47.8879
H 82.7471 102.59065600000001 47.3345
H 83.0302 101.320856 45.1279
O 80.5806 98.001056 40.2663
C 87.5194 101.76035600000002 45.1838
C 87.0179 100.37535600000001 45.656
C 85.5297 100.16525600000001 45.408
H 87.2344 100.211656 46.7124
H 87.5402 99.59295600000002 45.0959
C 84.6711 101.00475600000001 46.3789
H 85.3182 99.10015600000001 45.527
H 85.3425 100.45665600000001 44.3743
H 84.8504 100.63665600000002 47.3975
H 85.0193 102.042556 46.3395
O 88.9476 101.73355600000001 45.0718
H 87.2059 102.562256 45.8712
H 87.0932 101.99495600000002 44.199
C 91.98275600000001 103.39505600000001 48.0311
C 90.5469 103.88685600000001 47.7597
C 90.0287 103.506656 46.3793
H 90.5304 104.97825600000002 47.8238
H 89.8477 103.51325600000001 48.5119
C 89.6861 102.01355600000001 46.2747
H 90.78005600000002 103.79025600000001 45.6375
H 89.1248 104.09725600000002 46.2087
H 90.608 101.42405600000001 46.2746
H 89.1079 101.70725600000002 47.1519
O 92.26465600000002 103.656456 49.4051
H 92.69825600000001 103.924456 47.3804
H 92.08095600000001 102.31715600000001 47.8306
C 102.66225600000001 103.26405600000001 49.6587
C 101.65835600000001 102.98745600000001 50.7668
H 102.14895600000001 102.98165600000002 51.7457
H 100.92645600000002 103.79635600000002 50.7705
C 100.912856 101.664956 50.5322
H 100.62635600000002 101.62195600000001 49.4726
H 101.59575600000001 100.82925600000002 50.7104
C 99.63235600000002 101.49575600000001 51.4022
H 98.85565600000001 102.15665600000001 50.9939
H 99.262156 100.46775600000001 51.2819
C 99.80835600000002 101.80905600000001 52.9167
H 100.77385600000001 101.40965600000001 53.251
H 99.85565600000001 102.894856 53.0572
C 98.706556 101.20545600000001 53.8239
H 98.793056 100.11395600000002 53.7791
H 98.90845600000002 101.48165600000002 54.8633
C 97.25165600000001 101.583656 53.4569
H 97.06775600000002 101.28885600000001 52.4206
H 96.57245600000002 100.980056 54.0696
C 96.89155600000001 103.07835600000001 53.6575
H 97.009156 103.336256 54.7184
H 97.591756 103.71185600000001 53.0997
C 95.43845600000002 103.41145600000002 53.2221
H 94.73445600000001 102.77425600000001 53.7776
H 95.22075600000001 104.45155600000001 53.504
C 95.20895600000001 103.25845600000001 51.6965
H 95.920956 103.900456 51.1565
H 95.400856 102.22135600000001 51.3876
C 93.77265600000001 103.624756 51.2678
H 93.04625600000001 102.99835600000002 51.8056
H 93.55565600000001 104.66705600000002 51.5332
C 93.550656 103.44145600000002 49.768
N 103.862756 102.458656 49.9014
H 102.92985600000002 104.32625600000001 49.7019
H 102.224456 103.05435600000001 48.6736
H 104.11825600000002 102.62205600000001 50.8757
O 94.42925600000001 103.06205600000001 48.994
C 105.230056 103.16105600000002 45.1274
C 105.58505600000001 103.343056 46.6207
C 104.80835600000002 102.39465600000001 47.5219
H 105.32835600000001 104.36825600000002 46.9062
H 106.65165600000002 103.21145600000001 46.8114
C 105.01975600000002 102.76325600000001 49.0065
H 105.13785600000001 101.36825600000002 47.3444
H 103.758756 102.47475600000001 47.2454
H 105.90955600000001 102.224556 49.3571
H 105.26525600000001 103.82865600000001 49.0925
O 105.17935600000001 101.77355600000001 44.7597
H 105.95205600000001 103.70585600000001 44.4991
H 104.24475600000001 103.61465600000001 44.9392
C 108.54915600000001 98.90265600000001 44.2359
C 108.712956 100.43715600000002 44.3319
C 107.54735600000001 101.11825600000002 45.0418
H 108.851256 100.91165600000001 43.3499
H 109.60495600000002 100.66365600000002 44.9267
C 106.33205600000001 101.21625600000002 44.107
H 107.902156 102.11485600000002 45.3127
H 107.30465600000001 100.54765600000002 45.9429
H 106.596556 101.809656 43.2195
H 106.07535600000001 100.207856 43.7649
O 108.67375600000001 98.504856 42.8694
H 107.58855600000001 98.585756 44.6667
H 109.34015600000001 98.41265600000001 44.8213
C 108.19815600000001 94.06285600000001 33.4254
C 107.90295600000002 92.58035600000001 33.6511
H 107.067456 92.416756 34.342
H 107.61015600000002 92.15315600000001 32.6843
C 109.14505600000001 91.803256 34.1124
H 108.92115600000001 90.7371 34.0488
H 109.918456 91.991656 33.3574
C 109.72845600000001 92.14255600000001 35.5166
H 110.80185600000002 91.92775600000002 35.4514
H 109.65265600000001 93.21915600000001 35.7073
C 109.16395600000001 91.338756 36.7277
H 108.18845600000002 91.72905600000001 37.0428
H 108.99175600000001 90.3017 36.4174
C 110.15145600000001 91.305456 37.9264
H 109.73665600000001 90.6808 38.7279
H 111.06875600000001 90.8007 37.5959
C 110.54495600000001 92.69295600000001 38.499
H 111.52405600000002 92.61255600000001 38.9895
H 110.68065600000001 93.41965600000002 37.6908
C 109.53085600000001 93.25395600000002 39.5212
H 108.51625600000001 93.19995600000001 39.1094
H 109.53965600000001 92.62915600000001 40.4231
C 109.84575600000001 94.71775600000001 39.9101
H 110.91275600000002 94.82345600000001 40.1552
H 109.65095600000001 95.36555600000001 39.044
C 109.01465600000002 95.191156 41.1227
H 107.95615600000001 94.93415600000002 40.9698
H 109.35285600000002 94.64905600000002 42.0161
C 109.14965600000001 96.71045600000001 41.3574
H 110.20915600000001 96.988256 41.421
H 108.73195600000001 97.261356 40.5093
C 108.46195600000001 97.18565600000001 42.6367
N 107.618356 94.81205600000001 34.5169
H 107.734356 94.37365600000001 32.4827
H 109.27815600000001 94.24785600000001 33.3615
H 106.61825600000002 94.65715600000001 34.4571
O 107.95575600000001 96.42385600000001 43.4597
C 101.678656 102.39025600000001 41.6523
C 102.91295600000001 103.129456 42.1594
H 102.55905600000001 104.039956 42.6549
H 103.407756 102.54365600000001 42.933
C 103.930456 103.57495600000001 41.0888
H 103.42605600000002 104.271156 40.4073
H 104.67905600000002 104.16085600000001 41.6334
C 104.65055600000001 102.43415600000002 40.3058
H 104.814856 101.59965600000001 40.9967
H 103.992956 102.06725600000001 39.5055
C 106.04075600000002 102.81795600000001 39.7054
H 105.98415600000001 103.80225600000001 39.2176
H 106.76655600000001 102.91945600000001 40.5208
C 106.57775600000001 101.79145600000001 38.6655
H 105.867956 101.76825600000001 37.8324
H 107.51535600000001 102.16295600000001 38.233
C 106.81625600000001 100.34585600000001 39.1963
H 107.87875600000001 100.21135600000001 39.4427
H 106.29565600000001 100.200056 40.1486
C 106.35085600000001 99.23795600000001 38.2073
H 105.88895600000001 98.42265600000002 38.7823
H 105.55955600000001 99.62785600000001 37.5525
C 107.50135600000002 98.65565600000001 37.3544
H 108.046856 99.47005600000001 36.8652
H 108.20645600000002 98.14075600000001 38.0162
C 107.01465600000002 97.66825600000001 36.2766
H 106.34625600000001 96.91945600000001 36.7218
H 106.42845600000001 98.21985600000001 35.5297
C 108.20255600000002 96.959056 35.5853
H 108.98455600000001 97.686356 35.3298
H 108.662056 96.24855600000001 36.2851
C 107.79965600000001 96.23375600000001 34.3023
N 102.02215600000001 101.00035600000001 41.4104
H 101.27425600000001 102.86435600000002 40.7541
H 100.92205600000001 102.461256 42.447
H 102.685556 100.75635600000001 42.1356
O 106.89885600000001 96.61135600000001 33.5759
C 100.49755600000002 98.87185600000001 47.5601
C 101.89215600000001 98.24145600000001 47.671
H 102.190256 98.12795600000001 48.7178
H 101.83615600000002 97.23955600000001 47.2346
C 102.97895600000001 99.03375600000001 46.9168
H 102.59125600000002 99.34815600000002 45.947
H 103.15615600000001 99.94975600000001 47.4931
C 104.33145600000002 98.26925600000001 46.7693
H 105.105556 98.980456 46.4611
H 104.62275600000001 97.90395600000001 47.7627
C 104.34645600000002 97.06575600000001 45.7746
H 105.28595600000001 96.51505600000002 45.9049
H 103.544756 96.35565600000001 46.0103
C 104.24965600000002 97.49755600000002 44.2892
H 103.45365600000001 98.24155600000002 44.1692
H 105.18095600000001 98.00285600000001 43.9995
C 104.00385600000001 96.324656 43.3046
H 104.90465600000002 95.70455600000001 43.2476
H 103.19515600000001 95.67295600000001 43.6602
C 103.66875600000002 96.83815600000001 41.8807
H 104.263456 97.73885600000001 41.6883
H 103.954856 96.09715600000001 41.1218
C 102.16905600000001 97.18565600000001 41.7255
H 101.58255600000001 96.25975600000001 41.6415
H 101.81085600000002 97.67245600000001 42.6383
C 101.881156 98.08125600000001 40.4951
H 102.76015600000001 98.69225600000001 40.2522
H 101.68705600000001 97.444556 39.6241
C 100.668856 99.03085600000001 40.6783
H 100.426556 99.51395600000001 39.7227
H 99.77555600000001 98.46115600000002 40.9668
C 100.88535600000002 100.14195600000001 41.7148
N 99.55935600000001 98.26315600000001 48.5292
H 100.125656 98.718956 46.5453
H 100.546856 99.95715600000001 47.7399
H 99.78895600000001 98.64865600000002 49.4394
O 100.90335600000002 99.94995600000001 42.9147
C 97.53855600000001 94.77235600000002 47.3341
C 97.11845600000001 95.72285600000001 48.4778
C 98.26675600000002 96.18075600000002 49.3877
H 96.39155600000001 95.224056 49.124
H 96.62855600000002 96.61685600000001 48.0816
C 99.49965600000002 96.77165600000001 48.6439
H 98.58905600000001 95.31775600000002 49.9745
H 97.864956 96.89965600000001 50.109
H 100.38695600000001 96.44465600000001 49.2024
H 99.60875600000001 96.317356 47.6588
O 98.45495600000001 93.79355600000001 47.8335
H 98.01065600000001 95.35005600000001 46.5345
H 96.65265600000001 94.28965600000001 46.9112
C 102.32675600000002 91.047756 46.4099
C 100.788256 91.186856 46.5177
C 100.39925600000001 92.58995600000002 46.9516
H 100.39045600000001 90.5173 47.2863
H 100.30905600000001 90.94975600000001 45.5628
C 98.87405600000001 92.752756 46.9386
H 100.86305600000001 93.30785600000002 46.2776
H 100.799456 92.74815600000001 47.9532
H 98.53725600000001 92.92935600000001 45.9132
H 98.41035600000001 91.81775600000002 47.2707
O 102.659856 89.7387 46.8701
H 102.841356 91.78945600000002 47.0386
H 102.64645600000001 91.20645600000002 45.3697
C 95.09115600000001 84.0428 45.5774
C 95.67685600000002 82.7123 45.1063
H 96.58035600000001 82.4867 45.6785
H 94.95445600000001 81.9105 45.296
C 95.97515600000001 82.7017 43.5956
H 96.12025600000001 81.659 43.2913
H 95.064456 83.0465 43.0931
C 97.182556 83.5491 43.1
H 97.160756 83.5034 42.0081
H 97.02535600000002 84.6066 43.3533
C 98.59845600000001 83.0963 43.5682
H 98.52725600000001 82.2005 44.2085
H 99.20205600000001 82.8311 42.689
C 99.29245600000002 84.2327 44.3484
H 99.34035600000001 85.1368 43.7234
H 98.65825600000001 84.4825 45.2004
C 100.71795600000002 83.932 44.8749
H 100.75755600000001 82.9518 45.3686
H 101.43355600000001 83.8952 44.0433
C 101.13015600000001 85.0247 45.8895
H 100.432956 85.8649 45.7791
H 100.99145600000001 84.6387 46.9112
C 102.56375600000001 85.5911 45.7551
H 103.25465600000001 85.035 46.4088
H 102.93925600000001 85.5051 44.7243
C 102.54025600000001 87.0837 46.1498
H 102.16175600000001 87.6442 45.2792
H 101.82485600000001 87.2411 46.9689
C 103.89295600000001 87.6819 46.5833
H 104.09445600000001 87.4034 47.6233
H 104.710856 87.2865 45.963
C 103.853356 89.2137 46.4549
N 94.53135600000002 83.7854 46.9007
H 94.29405600000001 84.3465 44.892
H 95.852456 84.8301 45.605
H 94.156856 82.8474 46.8438
O 104.67285600000001 89.818 45.7965
C 91.75775600000001 86.9681 48.9451
C 93.19505600000001 86.4814 49.2335
C 93.993356 86.0631 48.0048
H 93.21065600000001 85.653 49.9431
H 93.777556 87.268 49.7093
C 93.48875600000001 84.7233 47.4252
H 95.02995600000001 85.9704 48.3234
H 93.92965600000001 86.8637 47.2669
H 92.72525600000002 84.9228 46.6582
H 92.96845600000002 84.2093 48.2383
O 91.71545600000002 88.3739 49.1738
H 91.04695600000001 86.4908 49.6357
H 91.43015600000001 86.7279 47.922
C 95.677456 87.8576 41.1295
C 95.76395600000001 87.4312 42.5898
H 95.43745600000001 86.3946 42.7339
H 96.81065600000001 87.5312 42.9076
C 94.89425600000001 88.3794 43.4262
H 95.012156 89.3872 43.0181
H 93.849056 88.0883 43.2741
C 95.26715600000001 88.3683 44.93
H 94.97385600000001 87.4015 45.3469
H 96.353756 88.4403 45.0346
C 94.65285600000001 89.5213 45.763
H 94.883756 89.3629 46.8284
H 95.132056 90.4657 45.4666
C 93.13025600000002 89.6907 45.563
H 92.95365600000001 90.0138 44.533
H 92.62415600000001 88.7233 45.7136
C 92.55485600000002 90.7678 46.5041
H 92.67325600000001 90.4117 47.5306
H 93.16525600000001 91.67855600000001 46.4102
C 91.08315600000002 91.123856 46.1869
H 91.084056 91.63105600000002 45.216
H 90.4594 90.2348 46.0542
C 90.4388 92.08335600000001 47.2203
H 91.19095600000001 92.78635600000001 47.6115
H 89.7167 92.719356 46.6879
C 89.6808 91.414156 48.3967
H 89.3327 92.22555600000001 49.0531
H 88.7803 90.90995600000001 48.0211
C 90.5144 90.4376 49.2611
H 91.53035600000001 90.84335600000001 49.4003
H 90.0775 90.3884 50.2699
C 90.59165600000001 88.9969 48.7296
N 96.550256 86.9823 40.3745
H 96.02145600000001 88.8934 41.0193
H 94.65335600000002 87.7727 40.7504
H 96.30765600000001 86.0354 40.6475
O 89.7019 88.4683 48.0645
