60

N         -6.92702        1.16006       -0.10744
C         -5.97717        2.11075       -0.30815
C         -4.68664        1.45108       -0.11047
C         -6.38612       -0.04198        0.23962
C         -4.93463        0.15315        0.26552
H         -7.91748        1.33748       -0.16279
O         -6.13216        3.28795       -0.56752
O         -6.96092       -1.07907        0.48713
C         -3.39958        1.95626       -0.20170
C         -3.90732       -0.67601        0.65338
C         -2.59556       -0.15340        0.63931
C         -2.28349        1.13654        0.12638
H         -3.32454        3.00490       -0.47426
H         -4.11292       -1.68446        1.00182
H         -1.83276       -0.79036        1.08157
C         -0.81099        1.74249        0.06090
C         -0.69816        2.77509       -1.08645
F         -1.01131        2.19350       -2.27362
F          0.53765        3.29899       -1.23782
F         -1.51364        3.84178       -0.94481
C         -0.65371        2.57486        1.34741
F         -1.68186        3.43193        1.54815
F          0.47194        3.31928        1.37840
F         -0.61439        1.76455        2.43825
C          0.42568        0.74563       -0.06999
C          1.74853        1.26941       -0.02149
C          2.84449        0.41877       -0.03855
C          0.33739       -0.65692       -0.25239
C          1.46049       -1.50714       -0.12677
C          2.70497       -0.93104        0.02207
C          4.03687       -1.48271        0.26422
N          4.96078       -0.46178        0.10387
C          4.26651        0.69684       -0.18329
C          6.41196       -0.57464        0.18276
C          7.25234        0.54936        0.52028
C          8.68200        0.45174        0.47440
C          7.08415       -1.80436       -0.07270
C          8.48416       -1.90509        0.09947
C          9.28653       -0.80381        0.37737
C          6.71485        1.88937        0.98457
N          9.49234        1.57866        0.75388
H          1.35476       -2.58805       -0.17381
H         -0.59984       -1.14948       -0.49415
H          1.97081        2.33386        0.02891
O          4.60572        1.77014       -0.64956
O          4.12401       -2.63011        0.66266
C          6.45784       -3.09118       -0.54907
H          5.63015       -2.91184       -1.23865
H          6.15728       -3.70635        0.30424
H          7.17855       -3.68615       -1.12433
C         10.77147       -0.99912        0.52493
H          8.96302       -2.87764       -0.02067
H         11.04370       -2.06011        0.51567
H         11.11885       -0.58759        1.47867
H         11.30362       -0.51292       -0.29895
H          5.75355        1.79928        1.49356
H          6.66102        2.58512        0.14050
H          7.36252        2.34400        1.74240
H          9.08778        2.44554        0.41101
H         10.44578        1.48244        0.42018
