59

 C   -2.131274546894    0.696205335250   -4.573916951587
 C   -2.896452316858   -0.434970087790   -4.389104303049
 C   -1.311038829876   -1.241000591589   -2.767049158597
 C   -2.481149239075   -1.417491964828   -3.471674806581
 C    2.004657514382   -0.579138414592   -0.395401588187
 C    2.240464890833   -0.833871856269    0.949901314252
 C    0.832564629787    0.044815785492   -0.795307150098
 C    1.287271552069   -0.462248329703    1.874683453192
 C   -0.123422319205    0.418005930546    0.140972213718
 C    0.115432661907    0.158496339072    1.473912706687
 C    2.918977498084   -0.875067725975   -1.575942046921
 H    3.140372314734   -1.315860653443    1.303950405918
 C    0.784923328258    0.259178472924   -2.301593978729
 O    1.528763035589   -0.729714678549    3.199554812800
 H   -1.051363372269    0.895606255091   -0.139670379594
 C    0.608858350094   -0.320072873212    4.091905345252
 C    0.846824306984   -0.531518350489    5.440505923797
 C   -0.568907548832    0.303836923292    3.689299071322
 C   -0.085093291062   -0.125507717796    6.398539127932
 C   -1.490287372985    0.707883742998    4.642309386239
 C   -1.248484763100    0.491708533443    6.001018225508
 C    2.069976852256   -1.179061970863    5.853446023322
 O   -0.840169211937    0.524158100706    2.390421862495
 H    0.118911427256   -0.300526364136    7.443529047846
 C   -2.710080633235    1.357329700432    4.222583095024
 H   -1.979669252980    0.813036306330    6.726541157901
 N   -3.679692847318    1.871367302533    3.926013635370
 N    3.022646607902   -1.686585548611    6.210154662823
 C    1.954863921858   -0.655831501034   -2.774081999502
 C   -0.542035285290   -0.089418560867   -2.957777439416
 C    0.932157671562    1.761047569917   -2.695117274518
 H    2.470913939522   -0.250594588390   -3.644032428192
 H    1.540795755599   -1.619633903407   -3.072352483479
 C    3.461058046129   -2.310283294043   -1.558875554518
 C    4.099756086895    0.112250126268   -1.595726170137
 H    2.651494689554   -3.038695473693   -1.482324022593
 H    4.141372368129   -2.472016968926   -0.719415544976
 H    4.017625503122   -2.517666652959   -2.476373258459
 H    3.760356367974    1.148553210547   -1.610509236718
 H    4.724281193276   -0.054893753275   -2.477118210548
 H    4.728196926009   -0.015762716813   -0.711200939809
 C    0.039503349443    2.026729635069   -3.939002426090
 H    1.970261234649    2.043911771889   -2.869493337833
 H    0.571790618176    2.373697832522   -1.867991570456
 C    0.843402210898    1.951354227796   -5.249376292632
 C   -0.638811116130    3.399889665559   -3.842566546616
 C   -0.948300219141    0.873084794638   -3.850804827524
 H    0.110026738700    4.194830595791   -3.790832091760
 H   -1.268615523400    3.468341490473   -2.953549685528
 H   -1.265610182945    3.598008629570   -4.715487514044
 H    1.595281123085    2.744386619345   -5.288168596505
 H    0.187187872002    2.070881679172   -6.114820433589
 H    1.352669053547    0.992577833323   -5.354985260649
 H   -2.464427343041    1.444425113783   -5.283669164785
 H   -1.000942878029   -1.999950369962   -2.057825475433
 O   -3.278230868972   -2.499007571977   -3.333344986404
 O   -4.051884239670   -0.666178926052   -5.047565490699
 H   -4.245551567421    0.057437597364   -5.623497595713
 H   -2.921803151940   -3.080690013758   -2.679541767250
