64

 C   -5.729372010021    0.453941388254   -0.539255748404
 C   -4.534042651915    1.370537883364   -0.616270709495
 H   -6.444257471195    0.893053269542    0.149840545215
 H   -5.432944674770   -0.527417220860   -0.165948189494
 H   -6.190660381274    0.318333593366   -1.517419012211
 O   -3.618334238896    1.138415414115   -1.557378995892
 C   -3.579853134321   -0.025493774113   -2.354507523366
 O   -4.383130218177    2.288888321189    0.115408596944
 C   -0.563951757272    3.576802380291   -0.484975766879
 H   -0.436688506056    3.507272612277    1.638499200114
 O   -0.184563287731    4.304200535680   -1.351010635483
 C   -1.017285885632    4.019199891358    0.871491903331
 H   -0.895083259137    5.094826365076    0.958967932824
 O   -0.643339318606    2.262388622005   -0.634789524264
 H   -2.066557468512    3.746826068087    0.989352983727
 C   -0.091780929524    0.226216576466   -1.739303070956
 C   -0.203466238678    1.736064161196   -1.878764831339
 C   -1.154003604397    2.141985423956   -3.028178183181
 C   -1.658947173352    0.922499411593   -3.788518031372
 O   -0.516416699288    2.964719790188   -3.958007984189
 H   -2.002014359674    2.652940721146   -2.579728981386
 C   -2.167105020861   -0.204413332682   -2.882833474283
 O   -1.343765674584   -0.408555877499   -1.754192127913
 H   -2.447368069611    1.224590957633   -4.478928564479
 H   -4.283011819315    0.059249275541   -3.185488402573
 H   -3.833079081950   -0.904552997933   -1.764238059455
 H   -2.184798948880   -1.128765830001   -3.470202955281
 H    0.792410722238    2.118225123364   -2.088290263730
 H   -0.252012709418    3.753173639567   -3.499800177304
 H    1.559495412517   -4.042917680559   -0.277383463561
 H    3.692433138620   -3.005980448401   -0.035373260856
 C    1.807365269740   -3.704285812872    0.732009602007
 H    4.042265148579   -0.604655394906   -0.495908896611
 O    2.170921995102   -4.819441728971    1.432083478895
 C    2.920013666639   -2.663291382219    0.649428035120
 H   -0.723258539763   -2.679054531679   -0.069687754345
 O    5.124915766147   -1.298337756124    1.257299321189
 C    0.976027162021   -1.382436392566   -0.362459633288
 C    4.583565659692   -1.884827901143    2.140049619857
 O    3.174479074964   -0.764173689832   -0.844485968081
 C    0.013077796615   -2.169290496633    0.560055610897
 C    2.393863395265   -1.290420110532    0.185881690644
 O    0.691266718649   -3.126617726577    1.335062385936
 O    3.475245263794   -2.592668830921    1.965480581329
 H    5.978714736034   -1.364096134557    3.655554989385
 C    5.045795819952   -1.912127105529    3.565519284453
 C   -0.774202396662   -1.296708149574    1.512254938210
 H   -1.428475028326   -0.651241432009    0.937222380684
 H    5.177138694597   -2.943706598947    3.891736919228
 H    2.364326563032   -0.623739385415    1.045936978266
 H   -1.363249139777   -1.948788629842    2.158558282041
 H    4.279554313241   -1.456127806159    4.193164547329
 O    0.131246603869   -0.541439468809    2.288461908771
 H   -2.254521229137   -0.008204207361    3.415785188622
 C   -0.230787607163    0.566584627959    2.936057517073
 C   -1.703509075426    0.865409843772    3.066762680972
 H   -2.117683354943    1.170321241363    2.105708491323
 O    0.609231047659    1.261028855606    3.399176222881
 H   -1.818482160071    1.679176109855    3.776584690532
 O    0.517797271629   -0.070590317389   -0.554896796837
 H    0.509103260921   -0.144775509015   -2.575666519005
 H   -0.841235123163    0.546573206424   -4.405986062954
 H    1.031714523964   -1.887924988219   -1.329198256316
 H    2.467334202710   -4.542693926594    2.289166662151
