1148
xyz file written from pySIMM system module
N -118.399 -26.4101 96.4562
C -119.401 -25.631 95.7417
C -120.774 -25.9274 96.36
H -119.388 -25.8594 94.6672
H -119.187 -24.5617 95.8692
H -118.589 -26.295 97.4494
C -121.45 -27.2229 95.85
H -121.447 -25.101 96.1071
H -120.71 -25.9478 97.4551
C -120.691 -28.5508 96.1263
H -121.625 -27.117 94.7727
H -122.438 -27.2644 96.3226
C -121.572 -29.8007 95.8705
H -120.342 -28.5626 97.1674
H -119.802 -28.5996 95.4842
C -120.795 -31.1414 95.9196
H -122.043 -29.7135 94.8826
H -122.392 -29.8212 96.5998
C -119.955 -31.3846 97.1988
H -120.124 -31.1881 95.0528
H -121.51 -31.9657 95.7983
C -120.782 -31.3862 98.5061
H -119.161 -30.6317 97.2654
H -119.449 -32.3533 97.0993
C -119.889 -31.6518 99.7374
H -121.564 -32.1547 98.4456
H -121.286 -30.4201 98.6332
C -120.694 -31.6693 101.057
H -119.115 -30.8758 99.7963
H -119.372 -32.6111 99.6061
C -119.795 -31.8163 102.307
H -121.426 -32.4863 101.033
H -121.263 -30.7347 101.144
O -117.856 -33.2158 101.935
C -119.009 -33.1254 102.322
H -120.416 -31.7806 103.21
H -119.088 -30.9791 102.365
O -115.545 -27.8117 99.1946
C -116.102 -26.7011 98.4783
C -115.993 -26.8912 96.9408
H -115.561 -25.788 98.7607
H -117.146 -26.5386 98.7763
C -117.01 -26.0198 96.1679
H -116.157 -27.9407 96.6678
H -114.974 -26.6426 96.6111
H -116.827 -26.1199 95.091
H -116.86 -24.9638 96.4255
N -107.117 -37.515 103.746
C -107.261 -37.4276 102.302
C -108.308 -36.3531 101.991
H -107.587 -38.3945 101.895
H -106.3 -37.1602 101.843
H -108.032 -37.7524 104.117
C -108.554 -36.2564 100.47
H -107.96 -35.382 102.363
H -109.252 -36.5887 102.497
C -109.567 -35.148 100.075
H -108.912 -37.2315 100.119
H -107.59 -36.0713 99.9824
C -109.896 -35.1439 98.5596
H -109.164 -34.1672 100.363
H -110.492 -35.2956 100.646
C -110.698 -33.9039 98.0925
H -110.452 -36.056 98.3064
H -108.959 -35.1796 97.9882
C -112.012 -33.6566 98.8736
H -110.928 -34.0169 97.0249
H -110.058 -33.0166 98.1817
C -112.793 -32.443 98.3202
H -111.776 -33.4722 99.9289
H -112.647 -34.5514 98.8345
C -113.916 -31.9849 99.2779
H -113.216 -32.6943 97.3386
H -112.099 -31.607 98.1656
C -114.667 -30.7468 98.7406
H -113.475 -31.7426 100.254
H -114.628 -32.8049 99.4402
C -115.625 -30.1414 99.7914
H -115.234 -31.024 97.8422
H -113.939 -29.9836 98.4365
O -117.436 -28.9848 98.7023
C -116.35 -28.9117 99.2455
H -115.069 -29.8546 100.693
H -116.376 -30.8833 100.092
N -95.386 -43.2655 106.579
C -95.5721 -42.0323 105.825
C -96.7434 -42.253 104.864
H -94.6598 -41.7998 105.259
H -95.7896 -41.1959 106.502
H -96.2486 -43.473 107.075
C -96.9353 -41.0381 103.933
H -97.6665 -42.4249 105.428
H -96.5521 -43.1462 104.256
C -97.9029 -41.278 102.736
H -95.9535 -40.7585 103.532
H -97.2715 -40.1901 104.539
C -99.3535 -41.6808 103.111
H -97.4824 -42.0632 102.093
H -97.933 -40.3699 102.121
C -100.133 -40.5713 103.854
H -99.3398 -42.595 103.717
H -99.8892 -41.9325 102.187
C -101.592 -40.991 104.146
H -100.13 -39.6551 103.25
H -99.6304 -40.3364 104.8
C -102.395 -39.8841 104.868
H -101.587 -41.9001 104.762
H -102.097 -41.2441 103.204
C -103.803 -40.3706 105.287
H -102.478 -39.012 104.208
H -101.845 -39.5611 105.763
C -104.629 -39.2982 106.042
H -103.689 -41.2413 105.946
H -104.355 -40.7203 104.406
C -105.17 -38.1516 105.148
H -104.013 -38.8703 106.843
H -105.476 -39.7875 106.54
O -106.908 -39.6051 104.256
C -106.231 -38.6019 104.136
H -104.349 -37.6723 104.601
H -105.608 -37.3769 105.79
O -93.5896 -47.0314 107.731
C -93.7144 -45.73 107.144
C -94.0284 -44.6237 108.185
H -94.5417 -45.7836 106.424
H -92.8174 -45.4657 106.569
C -94.2519 -43.2482 107.514
H -93.1965 -44.5329 108.894
H -94.9205 -44.8911 108.772
H -93.3411 -42.9549 106.977
H -94.4294 -42.4878 108.285
N -83.0705 -52.3827 118.409
C -84.2322 -51.5267 118.191
C -84.3811 -51.3466 116.677
H -84.0871 -50.5487 118.671
H -85.1313 -51.9953 118.612
H -82.2935 -51.9614 117.905
C -85.6711 -50.5758 116.324
H -84.427 -52.3335 116.201
H -83.5109 -50.8174 116.27
C -85.8881 -50.411 114.794
H -85.6367 -49.5915 116.805
H -86.5144 -51.1216 116.762
C -87.2609 -49.7902 114.435
H -85.8086 -51.394 114.309
H -85.0859 -49.7874 114.378
C -87.4798 -49.7386 112.905
H -87.3346 -48.7788 114.855
H -88.0576 -50.3901 114.894
C -88.8958 -49.2563 112.512
H -87.3183 -50.7416 112.489
H -86.7283 -49.0797 112.451
C -89.1296 -49.3703 110.989
H -89.037 -48.2168 112.835
H -89.6451 -49.8635 113.037
C -90.5491 -48.9306 110.564
H -88.9699 -50.4125 110.682
H -88.3854 -48.7636 110.456
C -90.8014 -49.2051 109.063
H -90.6849 -47.8638 110.782
H -91.2915 -49.4791 111.158
C -92.2182 -48.7939 108.59
H -90.6763 -50.2803 108.88
H -90.0429 -48.6972 108.453
O -91.5151 -46.4647 108.477
C -92.3936 -47.2947 108.321
H -92.9727 -49.1175 109.318
H -92.4428 -49.3228 107.656
O -81.6981 -54.2387 122.306
C -80.8886 -53.4688 121.408
C -81.4586 -53.4736 119.97
H -79.8799 -53.9035 121.398
H -80.7931 -52.4313 121.754
C -82.6991 -52.5599 119.82
H -81.712 -54.5 119.676
H -80.6789 -53.1291 119.274
H -82.4829 -51.5752 120.252
H -83.5435 -52.9837 120.378
O -78.4654 -55.9456 124.671
C -79.8321 -55.7496 124.296
C -80.1553 -54.2379 124.28
H -80.4999 -56.2651 124.999
H -79.9992 -56.169 123.296
C -81.5584 -53.9214 123.7
H -79.3874 -53.7064 123.705
H -80.097 -53.8378 125.303
H -81.7835 -52.857 123.846
H -82.3169 -54.4801 124.263
O -74.5687 -56.3212 126.048
C -75.9543 -56.6512 126.209
C -76.5346 -57.4191 124.992
H -76.4902 -55.7009 126.328
H -76.1266 -57.2213 127.1309
C -78.0738 -57.3027 124.903
H -76.268 -58.4798 125.075
H -76.0887 -57.0543 124.054
H -78.5314 -57.6674 125.831
H -78.4378 -57.9392 124.085
N -62.0531 -57.2444 120.633
C -62.9778 -57.2347 119.503
C -64.4084 -57.4437 120.015
H -62.7256 -58.0374 118.796
H -62.907 -56.2783 118.969
H -62.2729 -58.0619 121.196
C -64.6035 -58.8437 120.641
H -65.0964 -57.3358 119.17
H -64.6648 -56.6631 120.742
C -66.0792 -59.2721 120.868
H -64.0496 -58.887 121.586
H -64.1316 -59.5719 119.971
C -66.8944 -58.3401 121.8
H -66.0895 -60.288 121.287
H -66.5801 -59.3348 119.893
C -68.3438 -58.8548 121.962
H -66.9172 -57.3263 121.38
H -66.4005 -58.2783 122.777
C -69.2644 -57.9254 122.787
H -68.3312 -59.8543 122.416
H -68.7849 -58.973 120.964
C -68.9257 -57.9063 124.298
H -70.2931 -58.2786 122.651
H -69.2248 -56.9062 122.381
C -69.9092 -57.0661 125.15
H -67.9145 -57.5051 124.439
H -68.9116 -58.9351 124.68
C -71.364 -57.6012 125.144
H -69.8991 -56.0241 124.804
H -69.5398 -57.0525 126.183
C -72.2379 -56.8842 126.196
H -71.3617 -58.6798 125.348
H -71.8117 -57.4583 124.152
O -74.0224 -58.4971 126.452
C -73.6948 -57.3525 126.191
H -72.2021 -55.801 126.021
H -71.8349 -57.0652 127.1989
O -58.7376 -56.0942 123.331
C -59.6889 -56.0532 122.258
C -59.671 -57.3558 121.424
H -59.4245 -55.2098 121.606
H -60.704 -55.8574 122.626
C -60.6414 -57.2953 120.223
H -59.9364 -58.2125 122.055
H -58.653 -57.5422 121.051
H -60.4092 -56.4249 119.598
H -60.4852 -58.1864 119.603
N -66.9911 -59.7382 128.1119
C -66.0917 -59.2949 127.0559
C -64.8118 -60.1326 127.1409
H -65.8565 -58.2308 127.1729
H -66.5631 -59.445 126.075
H -67.1285 -60.7391 127.9919
C -63.9691 -59.7402 128.3779
H -64.2106 -59.9455 126.244
H -65.0488 -61.2031 127.1619
C -62.7094 -60.61 128.63889999999998
H -64.604 -59.7855 129.2699
H -63.6729 -58.6937 128.24790000000002
C -61.688 -60.6154 127.4759
H -63.0055 -61.643 128.8669
H -62.222 -60.2219 129.5429
C -60.3214 -61.2029 127.9089
H -61.5658 -59.5911 127.1079
H -62.0861 -61.2015 126.637
C -59.2058 -60.9978 126.857
H -60.4449 -62.2776 128.0939
H -60.0036 -60.7587 128.86090000000002
C -58.6775 -59.5442 126.803
H -59.5794 -61.3005 125.871
H -58.3662 -61.6639 127.09389999999999
C -57.7462 -59.3129 125.591
H -58.1381 -59.3174 127.7319
H -59.519 -58.8469 126.746
C -57.1068 -57.9027 125.556
H -58.3102 -59.4814 124.665
H -56.9432 -60.0608 125.606
C -58.1173 -56.7292 125.571
H -56.4844 -57.8228 124.655
H -56.4273 -57.7952 126.411
O -60.2146 -57.3475 124.539
C -59.1328 -56.792 124.43
H -57.569 -55.7843 125.502
H -58.6594 -56.6993 126.523
O -68.9726 -57.881 131.0179
C -68.6271 -59.2283 130.6909
C -69.1715 -59.6022 129.2929
H -69.091 -59.8944 131.43189999999998
H -67.5425 -59.3943 130.7139
C -68.2923 -59.0588 128.1439
H -70.1938 -59.2187 129.18689999999998
H -69.2364 -60.6972 129.19889999999998
H -68.1488 -57.977 128.25189999999998
H -68.8067 -59.2247 127.1899
N -63.7568 -55.841 133.9339
C -63.0771 -56.4954 135.0489
C -63.0606 -55.5491 136.2579
H -62.0478 -56.7444 134.7579
H -63.5917 -57.4273 135.31889999999999
H -64.66 -55.5156 134.27089999999998
C -64.4828 -55.2803 136.7919
H -62.5869 -54.601 135.9749
H -62.4515 -55.9959 137.0519
C -64.5467 -54.3956 138.0669
H -64.9644 -56.2444 136.9929
H -65.0389 -54.7984 135.9819
C -65.9869 -54.1645 138.60289999999998
H -64.0803 -53.4208 137.86489999999998
H -63.9498 -54.8667 138.8579
C -66.9005 -53.38 137.6249
H -65.9103 -53.5966 139.5389
H -66.451 -55.124 138.8639
C -67.7738 -54.2852 136.7189
H -66.2806 -52.7135 137.0109
H -67.5674 -52.7283 138.20389999999998
C -68.3536 -53.5054 135.51389999999998
H -68.5918 -54.7127 137.3129
H -67.1832 -55.132 136.35989999999998
C -69.1573 -54.3793 134.52089999999998
H -67.5369 -53.0148 134.9679
H -69.0048 -52.7056 135.8879
C -68.2977 -55.4527 133.8129
H -69.6015 -53.7217 133.7619
H -69.9909 -54.8634 135.04590000000002
C -69.0727 -56.1637 132.6809
H -67.9663 -56.1934 134.5489
H -67.3966 -54.9908 133.3909
O -67.4458 -57.962 132.7119
C -68.356 -57.3979 132.1299
H -69.2326 -55.4603 131.8569
H -70.0624 -56.4776 133.0349
O -64.9324 -56.2427 129.1529
C -64.8605 -56.9335 130.4019
C -64.5685 -55.9676 131.57389999999998
H -64.0315 -57.6488 130.3319
H -65.7677 -57.5196 130.5949
C -63.9658 -56.7226 132.7779
H -65.4953 -55.464 131.8739
H -63.8617 -55.1858 131.2539
H -63.0047 -57.1637 132.48489999999998
H -64.6273 -57.5479 133.0679
N -55.7006 -53.8237 126.688
C -56.5449 -53.052 125.792
C -57.7936 -52.6328 126.583
H -56.8231 -53.6645 124.925
H -56.0064 -52.1652 125.433
H -56.2407 -54.6325 126.977
C -58.7906 -51.8117 125.729
H -57.4829 -52.0076 127.4279
H -58.2964 -53.5121 127.001
C -59.4851 -52.5916 124.576
H -58.2414 -50.9615 125.308
H -59.5469 -51.3896 126.398
C -60.5699 -53.6023 125.032
H -58.7285 -53.1318 123.992
H -59.9294 -51.8745 123.874
C -61.9926 -53.0061 125.114
H -60.2984 -54.0675 125.988
H -60.6001 -54.4064 124.296
C -63.0605 -54.1194 125.247
H -62.1937 -52.4293 124.202
H -62.0589 -52.3085 125.958
C -64.5008 -53.5703 125.128
H -62.9269 -54.6317 126.207
H -62.9034 -54.8692 124.461
C -65.5978 -54.6664 125.106
H -64.585 -52.9861 124.203
H -64.6878 -52.8727 125.948
C -65.6781 -55.5412 126.378
H -65.4373 -55.3186 124.237
H -66.5723 -54.1845 124.953
C -66.0341 -54.7289 127.64489999999999
H -64.732 -56.0796 126.518
H -66.4536 -56.3015 126.225
O -67.0552 -55.5716 129.6639
C -66.0888 -55.5729 128.9149
H -67.0045 -54.2454 127.4969
H -65.3027 -53.9344 127.8119
N -61.6115 -55.017 129.4709
C -61.4058 -56.1336 128.5669
C -60.8378 -57.2965 129.3879
H -60.7039 -55.865 127.7659
H -62.3592 -56.4223 128.1069
H -62.4307 -55.2111 130.03789999999998
C -59.3937 -57.0161 129.8589
H -60.8195 -58.189 128.75990000000002
H -61.4873 -57.5095 130.2459
C -58.7945 -58.1534 130.7329
H -59.3665 -56.0776 130.42489999999998
H -58.7898 -56.8639 128.9579
C -57.354 -57.8818 131.2419
H -58.8026 -59.0974 130.1739
H -59.4456 -58.3023 131.6039
C -56.3185 -57.7194 130.1049
H -57.0485 -58.7113 131.8929
H -57.3554 -56.9777 131.86489999999998
C -54.8822 -57.4934 130.6379
H -56.6134 -56.8662 129.4869
H -56.3336 -58.6086 129.4619
C -53.8382 -57.2079 129.5289
H -54.5648 -58.3813 131.2009
H -54.8829 -56.6573 131.3499
C -54.1325 -55.9208 128.7219
H -53.785 -58.0645 128.8449
H -52.85 -57.1174 129.99790000000002
C -52.9973 -55.5644 127.7349
H -54.2905 -55.0819 129.4119
H -55.0613 -56.0572 128.1569
C -53.2763 -54.2659 126.934
H -52.839 -56.3982 127.0379
H -52.061 -55.439 128.2939
O -54.8307 -55.3462 125.417
C -54.51 -54.3421 126.027
H -52.4103 -54.0364 126.301
H -53.3849 -53.4194 127.6249
N -69.0331 -53.1517 128.8419
C -68.8822 -51.7022 128.8459
C -67.7041 -51.3178 127.9379
H -68.6985 -51.3413 129.8679
H -69.8005 -51.2298 128.47289999999998
H -68.206 -53.5546 129.2749
C -67.4557 -49.7954 128.0179
H -67.9288 -51.6026 126.904
H -66.797 -51.8495 128.2499
C -66.4283 -49.2163 127.002
H -67.1536 -49.5471 129.0419
H -68.4183 -49.2971 127.8519
C -64.9956 -49.8014 127.0679
H -66.3642 -48.1295 127.1509
H -66.8155 -49.3601 125.985
C -64.3368 -49.6949 128.4629
H -64.3782 -49.2706 126.332
H -65.0149 -50.8504 126.758
C -62.8104 -49.9334 128.3909
H -64.8005 -50.4207 129.1429
H -64.5234 -48.6966 128.8799
C -62.1059 -49.8398 129.7669
H -62.3726 -49.1731 127.73089999999999
H -62.6137 -50.9023 127.9199
C -62.2718 -51.0922 130.6669
H -62.4972 -48.9637 130.29989999999998
H -61.0372 -49.6416 129.61489999999998
C -61.0827 -52.0876 130.5999
H -63.218 -51.6022 130.45389999999998
H -62.35 -50.7519 131.7079
C -60.8064 -52.7237 129.2119
H -61.249 -52.8874 131.3329
H -60.1746 -51.5651 130.9269
O -63.0462 -53.567 128.7909
C -61.8475 -53.7623 128.7869
H -59.8283 -53.2215 129.2429
H -60.7193 -51.9603 128.4339
N -81.5481 -57.8655 135.1779
C -80.3047 -57.2905 134.6809
C -79.9922 -57.9226 133.32389999999998
H -79.4879 -57.4822 135.3869
H -80.4112 -56.2037 134.5699
H -81.4209 -58.8748 135.2309
C -78.6942 -57.3242 132.7499
H -80.817 -57.71 132.63389999999998
H -79.8986 -59.0114 133.4139
C -78.371 -57.7992 131.30689999999998
H -77.8709 -57.5818 133.42489999999998
H -78.8005 -56.2336 132.77089999999998
C -76.994 -57.3203 130.7769
H -79.1575 -57.448 130.6239
H -78.3986 -58.8956 131.2749
C -76.8308 -55.7799 130.81889999999999
H -76.877 -57.6751 129.7459
H -76.1979 -57.7911 131.3679
C -75.6484 -55.2338 129.9809
H -76.713 -55.4528 131.86090000000002
H -77.7539 -55.3162 130.4479
C -74.2582 -55.762 130.4119
H -75.6533 -54.1388 130.05689999999998
H -75.8173 -55.4721 128.9239
C -73.1111 -55.1024 129.6079
H -74.2194 -56.8495 130.27089999999998
H -74.1095 -55.5689 131.4819
C -71.7272 -55.6833 129.9799
H -73.1168 -54.0194 129.7849
H -73.2889 -55.2532 128.5359
C -70.5593 -55.0625 129.17090000000002
H -71.7382 -56.766 129.79989999999998
H -71.5499 -55.5489 131.0549
O -70.1467 -53.2604 130.7409
C -70.1982 -53.6324 129.5839
H -70.7971 -55.066 128.1019
H -69.6656 -55.685 129.2929
O -85.0295 -57.6878 138.7119
C -83.7064 -57.2899 138.3319
C -83.3188 -57.8607 136.9479
H -82.9901 -57.6296 139.09089999999998
H -83.6464 -56.1948 138.28289999999998
C -81.9334 -57.3456 136.49689999999998
H -84.0706 -57.5531 136.21089999999998
H -83.3156 -58.9586 136.96089999999998
H -81.1681 -57.6326 137.22789999999998
H -81.952 -56.2485 136.46089999999998
O -85.5934 -58.4227 142.19389999999999
C -86.5184 -58.7268 141.1429
C -86.8825 -57.461 140.33089999999999
H -87.4329 -59.1762 141.5539
H -86.0711 -59.4658 140.4669
C -85.6526 -56.8086 139.6559
H -87.3542 -56.7295 140.9999
H -87.6339 -57.7088 139.5659
H -84.9279 -56.5044 140.42090000000002
H -85.9661 -55.8952 139.1359
O -84.7406 -56.7094 146.68689999999998
C -85.6126 -57.4831 145.8539
C -85.1482 -57.4465 144.38490000000002
H -86.6326 -57.0847 145.9349
H -85.6316 -58.5309 146.1809
C -86.1804 -58.1274 143.4619
H -84.186 -57.9681 144.30790000000002
H -84.9845 -56.4103 144.0519
H -87.0528 -57.4725 143.34089999999998
H -86.5314 -59.0625 143.9139
O -87.0235 -57.7105 150.9139
C -85.7435 -57.57 150.28789999999998
C -85.9322 -57.365 148.77089999999998
H -85.1348 -58.4645 150.47789999999998
H -85.2065 -56.7062 150.69889999999998
C -84.5836 -57.164 148.0389
H -86.561 -56.4858 148.59890000000001
H -86.4636 -58.2298 148.3449
H -84.0077 -58.0977 148.0419
H -83.9856 -56.4181 148.5769
O -88.2924 -54.7922 152.3129
C -89.1103 -55.9661 152.15089999999998
C -88.4734 -57.2102 152.8199
H -89.3571 -56.1907 151.1079
H -90.0717 -55.7849 152.6479
C -87.0436 -57.535 152.33089999999999
H -89.1203 -58.0775 152.6379
H -88.4558 -57.0655 153.9099
H -86.686 -58.4523 152.8139
H -86.3644 -56.7272 152.6309
N -75.185 -52.1211 153.9279
C -76.3542 -52.0389 153.0629
C -77.2534 -50.9267 153.6049
H -76.9021 -52.991 153.0729
H -76.0531 -51.8184 152.0309
H -75.5292 -52.2222 154.87959999999998
C -78.521 -50.8053 152.7369
H -76.7142 -49.9724 153.5879
H -77.539 -51.142 154.64139999999998
C -79.563 -49.8021 153.3019
H -78.9689 -51.8019 152.6569
H -78.2119 -50.5048 151.7289
C -80.797 -49.5928 152.38889999999998
H -79.082 -48.8274 153.4649
H -79.9002 -50.1507 154.28640000000001
C -81.5969 -50.8906 152.1179
H -80.4743 -49.1536 151.4359
H -81.456 -48.8559 152.8659
C -82.9188 -50.5963 151.37290000000002
H -81.8135 -51.3836 153.07389999999998
H -80.9905 -51.5847 151.5229
C -83.7244 -51.854 150.9649
H -82.6952 -50.0184 150.46589999999998
H -83.5519 -49.9581 152.00189999999998
C -84.1411 -52.7476 152.1609
H -83.1441 -52.4487 150.24689999999998
H -84.6175 -51.5106 150.4299
C -85.1598 -53.8509 151.7859
H -84.5679 -52.1243 152.9569
H -83.247 -53.2256 152.5799
C -86.5762 -53.2893 151.5249
H -85.2171 -54.5715 152.6089
H -84.8034 -54.4032 150.9059
O -87.7271 -54.8301 150.0919
C -87.5938 -54.3856 151.2179
H -86.5571 -52.6079 150.6689
H -86.9158 -52.7155 152.3949
O -71.4595 -54.3448 153.03390000000002
C -72.1907 -54.5531 154.2483
C -73.09 -53.3336 154.5575
H -71.4806 -54.6775 155.077
H -72.8229 -55.4487 154.195
C -74.3057 -53.2531 153.6049
H -72.4953 -52.4138 154.48239999999998
H -73.4507 -53.3929 155.596
H -74.8852 -54.1817 153.6789
H -73.9628 -53.1649 152.5669
N -67.5765 -57.4523 142.0889
C -66.2841 -56.8743 141.7219
C -66.1025 -55.5684 142.5029
H -66.2643 -56.6486 140.6489
H -65.4648 -57.5717 141.9429
H -67.5701 -57.6102 143.0939
C -65.8254 -55.7931 144.0069
H -66.9971 -54.949 142.37290000000002
H -65.2643 -55.009 142.0709
C -65.7792 -54.4862 144.85289999999998
H -64.8594 -56.3042 144.0899
H -66.5705 -56.4872 144.4099
C -67.1596 -53.8291 145.1289
H -65.1309 -53.7558 144.3499
H -65.2963 -54.7023 145.8149
C -67.9893 -54.5888 146.19389999999999
H -67.7308 -53.7392 144.1969
H -66.99 -52.8049 145.4869
C -69.3738 -53.9402 146.4429
H -67.4163 -54.606 147.1279
H -68.1325 -55.6303 145.88389999999998
C -70.2158 -54.6368 147.5429
H -69.9473 -53.9585 145.5069
H -69.243 -52.8828 146.70589999999999
C -69.5547 -54.6367 148.94389999999999
H -70.4294 -55.6715 147.2449
H -71.184 -54.1236 147.6059
C -70.5394 -55.0571 150.0589
H -69.1683 -53.6339 149.1689
H -68.6968 -55.321 148.9449
C -69.8423 -55.1396 151.4359
H -70.9837 -56.0313 149.8169
H -71.3624 -54.3313 150.1079
O -70.9744 -56.5748 153.0169
C -70.8153 -55.4516 152.5729
H -69.3347 -54.1924 151.6569
H -69.0723 -55.9221 151.4149
O -68.6704 -59.7543 137.7789
C -68.7181 -59.7914 139.2149
C -68.0506 -58.553 139.8639
H -68.1799 -60.6895 139.54590000000002
H -69.7501 -59.8957 139.5759
C -67.9464 -58.7013 141.4029
H -68.6371 -57.6553 139.63490000000002
H -67.0461 -58.4003 139.4409
H -67.224 -59.4862 141.65890000000002
H -68.9162 -59.0242 141.79989999999998
N -81.9812 -62.5924 136.9709
C -80.5968 -62.3666 137.37689999999998
C -80.0516 -61.1756 136.57889999999998
H -80.0125 -63.2609 137.1239
H -80.4997 -62.1937 138.4549
H -82.0632 -62.1957 136.03789999999998
C -78.5142 -61.1216 136.7019
H -80.4821 -60.2438 136.9649
H -80.3203 -61.2711 135.5189
C -77.8421 -60.0689 135.7819
H -78.1178 -62.1141 136.4569
H -78.2628 -60.9258 137.7509
C -76.2986 -60.1167 135.8579
H -78.1834 -59.0661 136.0649
H -78.1567 -60.2412 134.7449
C -75.6329 -59.0709 134.9299
H -75.9601 -61.1248 135.5889
H -75.9874 -59.9366 136.8949
C -74.1095 -58.9146 135.1669
H -76.1045 -58.0959 135.11090000000002
H -75.8281 -59.3252 133.8799
C -73.263 -60.1496 134.7629
H -73.9418 -58.684 136.2269
H -73.7583 -58.0444 134.59789999999998
C -71.8445 -60.1548 135.3859
H -73.1929 -60.2036 133.6689
H -73.7633 -61.0691 135.08589999999998
C -70.9686 -58.9304 135.0189
H -71.3279 -61.0695 135.0679
H -71.9446 -60.2208 136.4769
C -69.5579 -59.0015 135.6569
H -71.4602 -58.0028 135.3379
H -70.8645 -58.8739 133.9279
O -70.3557 -58.2228 137.80790000000002
C -69.5771 -58.9273 137.1889
H -68.945 -58.1709 135.2919
H -69.0558 -59.9241 135.3389
O -84.4167 -62.8102 141.2929
C -84.3827 -62.2234 139.9889
C -83.1545 -62.7314 139.2029
H -84.3413 -61.1292 140.0729
H -85.295 -62.486 139.4359
C -83.0339 -62.0271 137.8299
H -83.2565 -63.8129 139.0479
H -82.2371 -62.5758 139.7889
H -82.8638 -60.9553 137.9699
H -83.9877 -62.132 137.2989
O -87.763 -62.7867 144.08589999999998
C -86.4494 -62.3746 144.49790000000002
C -85.3578 -62.9111 143.54590000000002
H -86.2609 -62.77 145.5049
H -86.3689 -61.2826 144.56189999999998
C -85.5042 -62.3703 142.1069
H -85.3946 -64.0073 143.53390000000002
H -84.3682 -62.6323 143.9389
H -85.5271 -61.2752 142.1319
H -86.4485 -62.7136 141.6659
O -90.6834 -58.9842 145.2119
C -90.0019 -59.6826 144.16289999999998
C -89.2228 -60.9031 144.7069
H -89.3294 -59.0026 143.62290000000002
H -90.7484 -60.0407 143.4419
C -88.6109 -61.7524 143.5709
H -89.9072 -61.5322 145.2899
H -88.4244 -60.5775 145.38889999999998
H -88.0474 -61.119 142.8759
H -89.4182 -62.2172 142.9919
O -89.1368 -55.5738 147.4749
C -89.8874 -56.6186 148.1069
C -90.7346 -57.4497 147.1119
H -90.5294 -56.2174 148.9029
H -89.181 -57.3004 148.5959
C -89.8662 -58.1545 146.04590000000002
H -91.4752 -56.8118 146.6159
H -91.3029 -58.2107 147.66989999999998
H -89.1042 -58.7627 146.5479
H -89.3444 -57.4108 145.4309
N -86.0394 -48.2456 158.5272
C -86.848 -49.1115 157.6839
C -86.5065 -48.8153 156.2197
H -87.9156 -48.9137 157.8579
H -86.6465 -50.166 157.9141
H -86.2326 -47.2962 158.2267
C -87.4922 -49.5549 155.2936
H -85.4813 -49.1352 156.002
H -86.574 -47.7376 156.0271
C -87.2652 -49.3237 153.7769
H -88.5082 -49.2388 155.5618
H -87.422 -50.6257 155.51729999999998
C -88.3806 -49.9902 152.9359
H -86.2865 -49.7293 153.48489999999998
H -87.2466 -48.2463 153.5659
C -88.104 -49.9333 151.4179
H -89.3376 -49.4975 153.1539
H -88.4845 -51.0381 153.24689999999998
C -89.2132 -50.6398 150.6059
H -87.1371 -50.4049 151.21089999999998
H -88.0232 -48.8873 151.0969
C -88.8286 -50.8235 149.1199
H -90.1419 -50.0589 150.68290000000002
H -89.4169 -51.6265 151.0419
C -89.9954 -51.4068 148.2849
H -87.9531 -51.4812 149.05689999999998
H -88.5306 -49.855 148.6959
C -89.5761 -51.8784 146.8689
H -90.7632 -50.6294 148.1809
H -90.4668 -52.2357 148.82889999999998
C -88.8982 -53.2731 146.84089999999998
H -88.9019 -51.1373 146.4219
H -90.464 -51.908 146.2249
O -91.0471 -54.3552 147.20389999999998
C -89.8263 -54.4292 147.2339
H -88.0268 -53.2853 147.5079
H -88.5204 -53.476 145.8299
N -80.9315 -54.4648 156.0283
C -80.1781 -55.1301 157.0787
C -79.0727 -54.1889 157.5648
H -79.7264 -56.0559 156.6968
H -80.8504 -55.3919 157.905
H -81.3968 -53.6428 156.3973
C -78.5625 -54.5698 158.9753
H -79.4009 -53.1435 157.5655
H -78.2361 -54.2373 156.8567
C -79.5898 -54.3805 160.1333
H -77.673 -53.966 159.1838
H -78.2377 -55.6165 158.9488
C -80.3347 -53.0222 160.09359999999998
H -79.0695 -54.4809 161.0953
H -80.3293 -55.1908 160.09969999999998
C -81.282 -52.8236 161.2934
H -80.9319 -52.9575 159.176
H -79.6016 -52.2044 160.0614
C -82.057 -51.4939 161.17090000000002
H -80.7006 -52.8357 162.22379999999998
H -81.9918 -53.6589 161.3364
C -83.0107 -51.2404 162.3622
H -82.6233 -51.5023 160.2314
H -81.3386 -50.6674 161.1024
C -83.7424 -49.8811 162.2613
H -82.4213 -51.2508 163.2886
H -83.7441 -52.0528 162.4438
C -84.8251 -49.8272 161.1544
H -82.9994 -49.091 162.0914
H -84.2166 -49.6569 163.2262
C -85.2924 -48.379 160.8982
H -85.6802 -50.4496 161.4503
H -84.4429 -50.2372 160.21269999999998
O -87.4099 -47.5748 160.0682
C -86.4634 -48.321 159.9184
H -84.4565 -47.7867 160.50310000000002
H -85.6055 -47.916 161.84300000000002
N -84.0009 -64.5747 158.1042
C -84.2134 -63.5417 159.1112
C -85.5243 -62.8205 158.7806
H -83.3768 -62.8313 159.09859999999998
H -84.2652 -63.9886 160.1114
H -84.6521 -65.3331 158.29070000000002
C -85.4126 -61.3191 159.11430000000001
H -86.3559 -63.2652 159.34120000000001
H -85.7578 -62.9269 157.714
C -86.5367 -60.4477 158.4995
H -84.4521 -60.956 158.7294
H -85.3841 -61.2076 160.20389999999998
C -86.3841 -58.9506 158.8697
H -87.5217 -60.8054 158.82999999999998
H -86.4999 -60.574 157.4109
C -87.3826 -58.0343 158.1218
H -85.356 -58.6167 158.6823
H -86.547 -58.8402 159.9494
C -87.227 -58.0041 156.57729999999998
H -87.2954 -57.0158 158.5156
H -88.399 -58.364 158.3639
C -85.8739 -57.447 156.0648
H -88.0395 -57.3951 156.1608
H -87.3782 -59.0101 156.1639
C -85.7048 -55.9299 156.3352
H -85.8262 -57.6212 154.9819
H -85.0409 -58.0165 156.4963
C -84.489 -55.3191 155.6011
H -85.6219 -55.7404 157.4149
H -86.6083 -55.4124 155.9905
C -83.1359 -55.6727 156.2636
H -84.5913 -54.2268 155.5783
H -84.4983 -55.6553 154.5563
O -81.9576 -55.0968 154.2035
C -81.9147 -55.338 155.3928
H -83.0858 -56.745 156.48489999999998
H -83.066 -55.1531 157.2267
O -81.0274 -63.5695 154.95319999999998
C -82.1327 -63.9321 155.7876
C -81.6579 -64.1814 157.2382
H -82.5851 -64.8535 155.3972
H -82.9007 -63.1498 155.8009
C -82.6285 -65.0962 158.0299
H -81.54 -63.2176 157.74869999999999
H -80.6662 -64.6544 157.242
H -82.2479 -65.266 159.0444
H -82.6583 -66.0755 157.5378
N -71.8925 -65.2254 155.0881
C -71.4671 -64.1478 154.2145
C -71.3172 -64.7098 152.7979
H -70.4973 -63.7644 154.56099999999998
H -72.1919 -63.3235 154.2232
H -72.7851 -65.5656 154.7452
C -72.6765 -64.8819 152.0699
H -70.8072 -65.6786 152.8429
H -70.6625 -64.0439 152.2219
C -72.7714 -64.1643 150.6919
H -73.4888 -64.5388 152.7209
H -72.8338 -65.9596 151.9349
C -73.0052 -62.6317 150.8039
H -73.5615 -64.6209 150.0799
H -71.8433 -64.3424 150.1399
C -74.4608 -62.1631 150.5359
H -72.3514 -62.1238 150.0849
H -72.688 -62.2834 151.7939
C -75.5524 -62.9025 151.3469
H -74.6821 -62.281 149.46589999999998
H -74.5176 -61.089 150.7529
C -76.9684 -62.3148 151.12689999999998
H -75.3171 -62.8618 152.41989999999998
H -75.5626 -63.9626 151.0629
C -78.0667 -63.2906 151.6139
H -77.1273 -62.1102 150.0599
H -77.0491 -61.3507 151.6479
C -79.2804 -62.6119 152.2909
H -77.6321 -63.9982 152.33089999999999
H -78.4094 -63.887 150.7579
C -80.3372 -63.6753 152.66989999999998
H -79.7295 -61.8624 151.6259
H -78.9413 -62.0894 153.1959
O -82.5117 -62.9098 153.3589
C -81.3742 -63.2028 153.6899
H -79.8305 -64.5598 153.07889999999998
H -80.8666 -64.0069 151.7689
N -71.4202 -75.905 157.47129999999999
C -70.5052 -74.8824 157.966
C -70.7069 -74.6995 159.4801
H -70.6368 -73.9375 157.41719999999998
H -69.4718 -75.2094 157.7942
H -71.5889 -76.5415 158.2439
C -71.1152 -73.2425 159.7636
H -69.7646 -74.8967 160.0073
H -71.4529 -75.3975 159.8795
C -71.7601 -72.9618 161.15519999999998
H -71.803 -72.8966 158.9805
H -70.1879 -72.6823 159.63830000000002
C -71.3382 -71.618 161.82580000000002
H -71.5363 -73.783 161.84879999999998
H -72.8515 -72.9746 161.0335
C -71.0787 -70.4137 160.87869999999998
H -70.4333 -71.7983 162.41559999999998
H -72.116 -71.3341 162.5439
C -72.3508 -69.9683 160.1175
H -70.2758 -70.6457 160.1685
H -70.697 -69.5669 161.4622
C -72.0678 -69.2822 158.7627
H -72.9485 -69.3057 160.7563
H -72.9814 -70.8422 159.91109999999998
C -71.6141 -67.8073 158.8673
H -72.9998 -69.324 158.1867
H -71.335 -69.8664 158.19279999999998
C -71.9343 -67.0667 157.5476
H -70.543 -67.7576 159.10309999999998
H -72.1453 -67.3094 159.68779999999998
C -71.4126 -65.6126 157.4971
H -73.0261 -67.0612 157.42239999999998
H -71.5189 -67.6278 156.7012
O -73.283 -64.4126 156.52530000000002
C -72.1193 -64.7518 156.4438
H -70.333 -65.6137 157.2964
H -71.5584 -65.123 158.4679
N -80.0231 -71.6932 145.9139
C -80.4147 -71.9619 147.2849
C -79.3352 -72.9196 147.7929
H -81.4033 -72.4403 147.3329
H -80.4294 -71.0305 147.8639
H -79.8139 -72.5938 145.4909
C -79.3933 -73.1206 149.3179
H -78.3395 -72.5236 147.54590000000002
H -79.4503 -73.8878 147.29590000000002
C -78.3101 -74.1299 149.7769
H -80.3896 -73.4851 149.5899
H -79.26 -72.1459 149.8029
C -78.064 -74.1993 151.3029
H -77.3522 -73.8826 149.2979
H -78.5956 -75.1242 149.4029
C -77.1952 -75.43 151.6499
H -79.0254 -74.2606 151.8279
H -77.5597 -73.2819 151.6359
C -76.9134 -75.5752 153.1619
H -76.2394 -75.3594 151.1199
H -77.6948 -76.3361 151.28390000000002
C -76.2204 -76.9229 153.5159
H -77.8678 -75.5182 153.6969
H -76.3193 -74.7152 153.5049
C -74.7261 -76.7849 153.9109
H -76.3083 -77.625 152.6739
H -76.7521 -77.391 154.3534
C -74.5218 -76.2213 155.3434
H -74.2048 -76.1595 153.1739
H -74.2553 -77.7772 153.86489999999998
C -73.0392 -75.8645 155.6088
H -74.8529 -76.972 156.07139999999998
H -75.1448 -75.3342 155.4993
O -73.5061 -75.4715 157.9697
C -72.724 -75.4053 157.0411
H -72.7363 -75.0593 154.929
H -72.4197 -76.7399 155.3767
O -81.5228 -71.0286 141.5439
C -81.3547 -70.1238 142.6439
C -80.371 -70.6616 143.7129
H -82.3294 -69.8803 143.09789999999998
H -80.897 -69.1974 142.2779
C -81.0122 -71.0039 145.0799
H -79.6179 -69.8853 143.8919
H -79.8318 -71.5424 143.3259
H -81.8843 -71.6515 144.9469
H -81.3506 -70.0932 145.5889
N -76.4301 -78.9569 141.7139
C -77.0693 -78.2294 140.61090000000002
C -78.0632 -79.1836 139.9159
H -76.3104 -77.9065 139.8859
H -77.5746 -77.3316 140.99689999999998
H -76.218 -79.8863 141.3579
C -79.073 -78.4856 138.9719
H -78.6785 -79.6895 140.6659
H -77.513 -79.9719 139.3809
C -78.5022 -77.9201 137.6399
H -79.5727 -77.6883 139.53390000000002
H -79.8364 -79.2368 138.7419
C -79.5889 -77.447 136.62689999999998
H -77.9128 -78.7065 137.1489
H -77.7974 -77.1045 137.8539
C -80.4731 -76.2341 137.0479
H -80.2638 -78.2875 136.4099
H -79.0885 -77.2097 135.6799
C -79.7313 -75.0341 137.6999
H -81.2481 -76.5836 137.7419
H -81.0057 -75.88 136.1539
C -80.5592 -73.7192 137.6399
H -78.7693 -74.8661 137.1999
H -79.5134 -75.2893 138.7439
C -79.9342 -72.5491 138.4519
H -81.5792 -73.9075 137.9939
H -80.6538 -73.3941 136.5939
C -80.7666 -71.2467 138.3519
H -78.924 -72.3439 138.0819
H -79.8291 -72.8312 139.5079
C -82.0806 -71.3058 139.18290000000002
H -80.9983 -71.0327 137.3049
H -80.1586 -70.3939 138.68689999999998
O -82.2692 -69.2319 140.34789999999998
C -82.0186 -70.4221 140.4229
H -82.3492 -72.3296 139.4589
H -82.9082 -70.9341 138.5629
O -77.2197 -79.1746 146.21589999999998
C -77.5936 -80.1757 145.2499
C -76.719 -80.0815 143.9689
H -78.6671 -80.1012 145.0119
H -77.4286 -81.1802 145.66989999999998
C -77.2435 -79.0512 142.9469
H -76.7143 -81.064 143.4749
H -75.6732 -79.8741 144.2339
H -77.312 -78.0669 143.4159
H -78.2656 -79.3481 142.7139
O -74.0224 -78.6276 148.8459
C -75.0688 -79.4351 148.2969
C -76.4881 -78.8621 148.5589
H -75.0164 -80.4452 148.7299
H -74.9161 -79.5485 147.2179
C -77.5206 -79.4866 147.5899
H -76.5047 -77.7727 148.4349
H -76.7802 -79.0677 149.6009
H -78.5256 -79.1184 147.8279
H -77.5201 -80.577 147.7439
O -71.8234 -75.355 149.6299
C -72.9677 -75.9971 150.17090000000002
C -74.0464 -76.1858 149.0819
H -73.3774 -75.3918 150.9889
H -72.6885 -76.972 150.5829
C -73.7418 -77.391 148.1659
H -74.1431 -75.2682 148.4819
H -75.0207 -76.3354 149.5539
H -72.6918 -77.3705 147.87689999999998
H -74.3166 -77.3032 147.23590000000002
N -66.3476 -63.1854 148.5439
C -67.4338 -63.6462 147.68189999999998
C -67.8763 -65.0497 148.1359
H -67.0984 -63.6864 146.63889999999998
H -68.2837 -62.9595 147.75189999999998
H -65.542 -63.7907 148.40890000000002
C -69.3973 -65.0485 148.39589999999998
H -67.3637 -65.3323 149.0629
H -67.6344 -65.8093 147.3869
C -69.9719 -66.4109 148.8469
H -69.9163 -64.7409 147.4769
H -69.6244 -64.2962 149.1529
C -69.3047 -66.9756 150.1239
H -69.8548 -67.1362 148.03390000000002
H -71.0494 -66.3039 149.02089999999998
C -70.046 -68.2327 150.6059
H -69.3102 -66.2174 150.9159
H -68.2532 -67.2163 149.9159
C -69.2332 -69.0093 151.6669
H -70.2048 -68.8798 149.7329
H -71.0363 -67.9501 150.98590000000002
C -70.0327 -70.0706 152.47289999999998
H -68.8005 -68.2879 152.3739
H -68.3768 -69.4748 151.1539
C -70.9369 -71.0034 151.6329
H -70.6738 -69.5466 153.1969
H -69.317 -70.6579 153.0629
C -70.54 -72.4899 151.6969
H -70.913 -70.7168 150.5819
H -71.9736 -70.9039 151.9749
C -71.5191 -73.3127 150.8299
H -70.5737 -72.8428 152.7369
H -69.5109 -72.6046 151.3319
O -69.9429 -75.1308 150.7799
C -71.0988 -74.7709 150.6059
H -71.6333 -72.8378 149.8429
H -72.512 -73.292 151.3029
O -65.3215 -58.9858 149.6599
C -64.3954 -59.8435 148.98989999999998
C -64.7598 -61.338 149.1929
H -63.3877 -59.6648 149.3909
H -64.3838 -59.633 147.9049
C -65.9625 -61.7772 148.3199
H -64.9511 -61.5554 150.2509
H -63.8997 -61.9532 148.9049
H -65.6827 -61.6475 147.2669
H -66.8305 -61.1326 148.50889999999998
N -59.1794 -62.8739 157.50119999999998
C -57.9385 -62.229 157.07569999999998
C -58.2332 -60.7425 156.79809999999998
H -57.5166 -62.7124 156.1779
H -57.1919 -62.3263 157.8768
H -59.8991 -62.5319 156.8758
C -58.8789 -60.5363 155.4094
H -57.2879 -60.1833 156.8157
H -58.8646 -60.3303 157.5972
C -59.3917 -59.0925 155.142
H -59.7174 -61.2302 155.2885
H -58.132 -60.8152 154.66230000000002
C -59.387 -58.7352 153.6309
H -58.7737 -58.3668 155.68200000000002
H -60.4106 -58.9937 155.5436
C -60.2894 -57.5392 153.2459
H -59.7229 -59.6049 153.04489999999998
H -58.3532 -58.5359 153.3209
C -59.8988 -56.9193 151.88889999999998
H -60.2797 -56.7633 154.0203
H -61.3199 -57.9126 153.1859
C -61.0409 -56.0751 151.2769
H -59.6176 -57.7169 151.1839
H -59.008 -56.2971 152.0109
C -62.0607 -56.9388 150.4889
H -60.6088 -55.3389 150.5939
H -61.5616 -55.5124 152.0639
C -63.0512 -56.0861 149.6669
H -62.6149 -57.603 151.1619
H -61.514 -57.5861 149.7899
C -63.9897 -56.9793 148.8149
H -62.4698 -55.4411 148.9939
H -63.6137 -55.4152 150.3259
O -65.9555 -56.9206 150.1739
C -65.1279 -57.6274 149.6369
H -63.3708 -57.7067 148.2799
H -64.4426 -56.3521 148.0309
N -59.256 -70.1004 149.87689999999998
C -58.7185 -71.4249 150.1879
C -57.6308 -71.3299 151.2659
H -58.2788 -71.8728 149.2809
H -59.5157 -72.1023 150.5369
H -58.4638 -69.4866 149.6959
C -58.1311 -70.705 152.57889999999998
H -56.7975 -70.7352 150.8899
H -57.2635 -72.3429 151.4689
C -57.1111 -70.8879 153.72789999999998
H -59.0819 -71.1816 152.8619
H -58.3253 -69.6462 152.4109
C -57.383 -69.9211 154.9044
H -56.0867 -70.7077 153.37689999999998
H -57.1332 -71.9324 154.0729
C -57.0261 -70.5364 156.2771
H -58.4406 -69.633 154.8988
H -56.8077 -68.9993 154.7486
C -57.2651 -69.6022 157.4965
H -55.9651 -70.8203 156.2624
H -57.6033 -71.4643 156.42489999999998
C -58.6905 -69.003 157.5788
H -56.5228 -68.7956 157.48059999999998
H -57.0753 -70.1706 158.41750000000002
C -58.7356 -67.5028 157.1722
H -59.0633 -69.09 158.60719999999998
H -59.3917 -69.5867 156.9684
C -58.4275 -66.5597 158.3736
H -59.7392 -67.2601 156.7951
H -58.0415 -67.3137 156.3347
C -58.058 -65.1067 157.975
H -57.5852 -66.9687 158.9495
H -59.2906 -66.5562 159.05329999999998
O -59.7601 -64.575 156.2976
C -59.2253 -64.3241 157.361
H -57.2309 -65.1021 157.2581
H -57.704 -64.5857 158.868
O -62.0738 -68.7569 150.56189999999998
C -62.5432 -69.4597 149.4139
C -61.5805 -70.6005 148.9759
H -62.6634 -68.743 148.5929
H -63.5326 -69.8932 149.6279
C -60.1324 -70.1144 148.6949
H -61.9694 -71.0223 148.0359
H -61.5983 -71.4276 149.7009
H -60.1615 -69.1076 148.27190000000002
H -59.6859 -70.767 147.9309
