56

 H    4.435708262570   -5.061627401883    0.671321076240
 C    4.832553434312   -4.083433907526    0.899715659979
 C    4.643322015598   -3.016481174465    0.046772316929
 H    4.100610658535   -3.150757453911   -0.877072359373
 C    5.171187894262   -1.767720804939    0.365280020568
 S    4.936849148203   -0.400366992883   -0.738526342625
 C    5.913092018634   -1.597279788512    1.522679442811
 H    6.352507121293   -0.635970637387    1.742222532650
 C    6.106577390364   -2.667182868255    2.381954521802
 H    6.689881545452   -2.536538365886    3.284806163304
 C    5.563644548817   -3.909085799882    2.073991554663
 O    5.718811258171   -4.980867801598    2.867255826091
 O    5.963682459718    0.580036938866   -0.426180347702
 O    4.800521848540   -0.944570888930   -2.079343081493
 H    4.203693393092    1.584448933201    1.215922090917
 C    3.304658895521    1.271985908336    0.706065481804
 C    2.089722384412    1.831822009943    1.035640805400
 H    2.007137099336    2.577937621131    1.812056919760
 C    0.936684493259    1.448376165405    0.349400092360
 O   -0.202675616006    2.057593797166    0.747177929277
 H    2.302726351602   -0.763417359010   -1.805195391524
 C    2.233073952530   -0.051045318547   -0.996999341400
 C    3.373583336564    0.315734177175   -0.304477031503
 H   -1.868583624101    0.188483838916    1.502301516178
 H   -4.069332974564   -0.248732318116    0.505708524671
 C   -2.210501747745    0.767934713957    0.656123122131
 C   -3.446722262286    0.528644479385    0.085119528198
 C   -1.405657855812    1.774617370187    0.145157873022
 C   -3.912769546699    1.276339654724   -1.001613401178
 C   -5.276782648456    0.929366101011   -1.631456355415
 C   -1.837930659274    2.535281558828   -0.919388657056
 C   -3.084178824486    2.281941751878   -1.486419609447
 H   -1.209219652487    3.327284410981   -1.301516012103
 H   -3.392747960932    2.896619676988   -2.317572994595
 C    1.005353065509    0.509646808140   -0.671250139742
 H    0.121359772021    0.222033491177   -1.217741299157
 H    6.239827338955   -4.763542901067    3.625981579060
 C   -5.113727262419   -0.413848293013   -2.372610048558
 C   -5.727756235046    1.974947291529   -2.672276899741
 H   -6.021928165348   -0.682305454657   -2.914928250795
 H   -4.864449965875   -1.230542956687   -1.694511678688
 H   -4.305513838425   -0.328821885850   -3.100485565907
 H   -5.048572845392    2.007404975497   -3.526291341207
 H   -5.794868856246    2.976535096186   -2.246956980119
 H   -6.717181711549    1.707416104636   -3.045258683253
 H   -5.842248452618    2.802500751734    0.258820670581
 C   -6.512669531613    1.957150125214    0.335088708328
 C   -7.499274994989    1.970661907181    1.304678521660
 H   -7.591521028172    2.825305426633    1.962129797588
 C   -8.365496378228    0.891128014659    1.438776469191
 H   -9.136122393401    0.898061123298    2.198025756949
 C   -8.225439429473   -0.191685273775    0.590696658686
 H   -8.888485253330   -1.042236545259    0.681179247131
 C   -7.232359463168   -0.200468053368   -0.385913001230
 H   -7.157052851160   -1.064317826707   -1.028383700708
 C   -6.358343242119    0.871315389410   -0.533513777975
