588
xyz file written from pySIMM system module
C -24.728211353312222 -45.984359688578664 67.84329933487156
C -23.657511138471865 -46.35563313552754 66.78715294940622
H -25.72780951159369 -46.26449259674369 67.49011845242845
H -24.554947963883837 -46.59084797688618 68.74141423510962
O -24.117989482536576 -46.07378276863873 65.45294025072131
H -23.371752121102354 -47.411110678141185 66.88040589054087
C -25.0043601230174 -46.92560152777138 64.87181201247837
C -25.431354438374978 -46.42616415590095 63.51084309797979
H -24.986266228017698 -47.071179644223044 62.747972443920034
H -25.08314675421048 -45.40003301284201 63.35451860874875
H -26.52201804969905 -46.460071352545455 63.44253197919781
O -25.511832560244805 -47.885567832137056 65.4202671974634
C -23.36847812673543 -44.09110915212983 68.92504798348604
C -24.706002144401058 -44.48500142067574 68.24892727462752
H -23.148874837489338 -44.825214754741886 69.70990947417462
H -22.56344705403402 -44.17535961919208 68.18630587639791
O -24.870353960007982 -43.66143376496704 67.08201071498104
H -25.521958351339734 -44.29899628524095 68.9607865078683
C -26.076467052444947 -43.59811682256884 66.46541711052387
C -26.014130238815362 -42.67882277754754 65.2739965968282
H -27.015558222879122 -42.56520669740513 64.84893459068431
H -25.3377022166922 -43.11709001255501 64.53449068636809
H -25.624669878098874 -41.70381353568063 65.58343357862692
O -27.097451218815767 -44.13491842326227 66.84688451871634
C -23.42317444030854 -41.49648310996349 68.5683427065503
C -23.36597075631501 -42.67729041574674 69.5768976852929
H -22.733605707133783 -41.696656951502774 67.74149867325795
H -24.426045055623508 -41.4441399456161 68.12773532794222
O -22.224909500659056 -42.5493729308275 70.4602494430275
H -24.260126497439156 -42.60818583279476 70.20948836434988
C -20.944164831198837 -42.557822320254246 69.9910632865101
C -19.959740822621768 -42.36226126986919 71.11582716257892
H -20.00125823432115 -43.22086781148158 71.79178463256218
H -20.219409087417237 -41.44961282159733 71.66287510574759
H -18.952718261145623 -42.25626303112287 70.69790900783963
O -20.6171267108198 -42.74286729653912 68.83616460499269
C -23.058669806804904 -39.01377054236548 68.09475650653472
C -23.107906359593034 -40.11350701091617 69.18619064637512
H -23.879254021953983 -39.187389171476774 67.38962641394636
H -23.250732492451355 -38.02140750767401 68.52247536531958
O -24.124348654120276 -39.803715340891145 70.15713956010813
H -22.143241557900524 -40.16571946253285 69.69554567017654
C -23.84138828637553 -38.84433753967826 71.08005390869401
C -24.97565746292905 -38.69187066253505 72.06183173819252
H -24.689385081642584 -37.97292091227905 72.8372558739527
H -25.187794368522574 -39.663932444478874 72.5193624315557
H -25.863796355103247 -38.33577308855129 71.53119602886787
O -22.81531604337412 -38.19409058993451 71.13553405371024
C -21.81290121650835 -38.591205859563416 65.86011819166609
C -21.69497546690728 -38.99273418413674 67.35090574935039
H -20.810273006168053 -38.37911447119619 65.46834947825178
H -22.37551134079985 -37.651342617881866 65.78108101699154
O -20.850850110453603 -38.00714285138861 67.97631010447093
H -21.219053482991715 -39.979325580077756 67.39756475363706
C -20.051123830445306 -38.3740338814367 69.01225395870934
C -19.29257182295666 -37.189467482339 69.55471004731342
H -18.80063865997029 -36.66390793012522 68.73146220478294
H -18.544293778145338 -37.53515938583797 70.27459576429118
H -19.997709616215836 -36.51433966756881 70.04837683396329
O -19.871801154053504 -39.51343734689718 69.3946678321872
C -22.448260548096307 -39.326216465839906 63.46210245601605
C -22.502877185544882 -39.666618166233164 64.97565425073046
H -22.965646162099773 -38.36775166238263 63.32996946635847
H -21.41782596988014 -39.16025964709685 63.122896347095285
O -22.000068420207306 -40.9945044857385 65.24787346013755
H -23.565211461529397 -39.674800879643804 65.24897901958556
C -20.700956743240397 -41.334200804409846 65.01209042035445
C -20.459101988782596 -42.79166663973376 65.31531661745774
H -20.127246839220874 -42.883859163584 66.35248765844159
H -19.680047622280995 -43.17454751550942 64.65048851260653
H -21.382469445027233 -43.363299678410826 65.1789365975093
O -19.838351620593915 -40.58734374152738 64.5989294589767
C -23.59359499342691 -39.82015935962741 61.21813541837577
C -23.141527805272332 -40.39910349052021 62.586276244715954
H -24.067563655036583 -38.84372874527158 61.377398324165604
H -22.692083533476133 -39.613748701010536 60.624424876455926
O -22.190377696456178 -41.45084553733183 62.327616183114806
H -23.999156938875515 -40.76005063930249 63.1580802889313
C -22.60832016540354 -42.73835754949998 62.23366230521236
C -21.483771084338873 -43.64714106990058 61.80585888385521
H -21.304128516397785 -43.4941102113218 60.73606496720295
H -21.75734056031083 -44.69049374230814 61.9909982443284
H -20.57385598408927 -43.394073472351224 62.3567983010404
O -23.729168006080045 -43.12681537053487 62.504718755657024
C -26.065780627686085 -40.50429565764845 60.75421395358606
C -24.571747999681843 -40.718655396686366 60.402013841805356
H -26.23232982230153 -39.44537568290922 60.98645635469151
H -26.684809496304453 -40.70766535307629 59.87168730990971
O -24.41815448153394 -40.40956047599565 59.006236036713815
H -24.338003360886805 -41.77627915374126 60.54387046783206
C -23.437971717004967 -41.05679958214395 58.31920424880828
C -23.421971473958806 -40.63912707834301 56.86837284172091
H -24.270238616909882 -41.1042398377859 56.35716551079435
H -22.48517103595939 -40.96531837319736 56.405208909052
H -23.509812764649674 -39.55078657916956 56.801224680847845
O -22.64243986215166 -41.843596087490745 58.798872839699676
C -26.82865315280868 -42.869854199943944 61.52766361800249
C -26.543212554448104 -41.40356317000721 61.927684117895495
H -26.894732262405345 -43.47681303349473 62.43876145887887
H -25.95739074486921 -43.259443569487004 60.99056978108892
O -27.719182071375478 -40.826226942265166 62.52328491993842
H -25.76376472975243 -41.45003892993434 62.68713388734464
C -27.54742336590185 -39.772269554637134 63.36423249390384
C -28.876050059907236 -39.263017529793736 63.86374590029973
H -29.352054243348675 -40.035527205781534 64.47585209848062
H -29.51995336534798 -39.031680177703905 63.00853583091879
H -28.718223759943317 -38.3588173772717 64.46102107408385
O -26.471009503717674 -39.32001308743707 63.709872284977514
C -29.337318566126385 -43.4091341367574 61.571137216588006
C -28.115735142217112 -43.07041196485896 60.68514560901235
H -29.25861497404605 -44.45641369802939 61.86561533994458
H -29.297376211134864 -42.8377980896105 62.50644400556597
O -27.920459569872687 -44.20897129579973 59.82458400704926
H -28.334437638521713 -42.17393998481732 60.091504954145805
C -27.140976324827516 -44.08257211954418 58.72247963407193
C -27.061368530224634 -45.392409019104456 57.981059081626306
H -26.24960342276631 -45.34909893661005 57.24887509718831
H -28.014426587082397 -45.57609956575894 57.47588602877385
H -26.874950713267644 -46.200642370335146 58.69398969359313
O -26.552128609738446 -43.07222116722107 58.39130655005969
C -31.91309049527161 -43.69243672138131 61.6694780248667
C -30.699542620093585 -43.10787496754248 60.89480020757762
H -32.77438923958923 -43.04227450732664 61.47057908456683
H -31.72755206930173 -43.61260333052782 62.74849056519858
O -30.70109678298494 -43.58595198100262 59.538049484792204
H -30.790559614019763 -42.01288914654059 60.891660363404476
C -31.520522081651478 -42.992356049870295 58.63347129002494
C -31.41404640091912 -43.66157684354935 57.287424686552335
H -30.360800590493753 -43.835129122382284 57.04504894656726
H -31.868480107406285 -43.022816770383486 56.52275713438505
H -31.933458404237065 -44.62388827874229 57.32527759273028
O -32.23680825523198 -42.03903887750058 58.861753629250785
C -31.320657171089476 -46.25056329283973 61.73887817470006
C -32.33208792771127 -45.149058546951565 61.31920306304189
H -30.679978138235914 -45.876121607052454 62.542025384622754
H -31.85945667131832 -47.09942845666248 62.179830793698216
O -33.55893416174657 -45.37719072824144 62.034656531754784
H -32.52666266480809 -45.20821010701627 60.240429178195946
C -34.425043272030834 -46.31579874218852 61.57009872562415
C -35.625524890552526 -46.42466464890687 62.477393412011054
H -36.003397365983794 -45.42179019951888 62.69648362419818
H -35.32980486395204 -46.911804053812716 63.41122029963818
H -36.40211774929862 -47.01334971827539 61.979564093019945
O -34.324310912768745 -46.91313222820745 60.516819024747896
C -29.240540881733484 -47.618896158905734 60.91374218566583
C -30.482154090200048 -46.768352795254486 60.54154384188902
H -28.94698320827719 -48.18270430119314 60.02666040756116
H -28.401953065446932 -46.94544130813877 61.1343997900084
O -31.367745734206853 -47.57420836199836 59.75009689760708
H -30.134770436469633 -45.913799177939424 59.95271791493384
C -31.107950430146847 -47.76852643534613 58.43256887272154
C -32.165848285436155 -48.641289859360974 57.80698632542966
H -33.13478088343621 -48.13819087171357 57.891105283821986
H -32.21108021293898 -49.593955449624616 58.345707511073954
H -31.924892459288948 -48.821034522258195 56.75484422665893
O -30.19894816530604 -47.25030428273561 57.809848676278556
C -28.555322524240417 -49.86143738001351 62.06768314350853
C -29.446072067552322 -48.588529595547286 62.10320121404916
H -28.81597551327082 -50.4806061312856 62.93509181694782
H -28.836382164780357 -50.471139845908866 61.205397807009824
O -29.130871753738873 -47.829280485379016 63.287487754916945
H -30.49476016726323 -48.914459880078766 62.111468568520266
C -29.560926053804522 -48.26712539894401 64.4990247789737
C -29.10924850903959 -47.32750443678802 65.58673109183216
H -29.564675520799238 -47.62747462795713 66.5354315194539
H -29.404572285258304 -46.30375615871816 65.33839746473157
H -28.02032198146283 -47.374566800645965 65.67616856411145
O -30.295463912318496 -49.215708439359645 64.68125946240565
C -26.371083384835853 -49.392698117069415 60.68777905435313
C -27.022169180471707 -49.6015573571616 62.088156008801235
H -25.326613320194326 -49.08502110577571 60.82082683069348
H -26.828465439149696 -48.54156310123936 60.17961171850831
O -26.42462813523491 -50.731806297864885 62.75402855763954
H -26.839993812846195 -48.710783651906425 62.69912984740357
C -25.18378635182375 -50.61340970657692 63.29754905008891
C -24.78157962328884 -51.89514106551678 63.986601799181045
H -23.7119809663699 -51.866204556387814 64.21679244094703
H -24.9994118023469 -52.74820466045891 63.33661707262878
H -25.35487977874376 -51.99489956162242 64.91287324654952
O -24.427633133894794 -49.67838700868364 63.12325812823683
C -25.058467765716316 -51.37480113171015 59.73168236165121
C -26.41921366661774 -50.645618141403716 59.775081553207364
H -24.311530551319144 -50.702917305056936 59.28425685809735
H -24.71330523909103 -51.60337062921848 60.74859445963335
O -26.718740930418672 -50.26620638536433 58.41776398254859
H -27.177465824170667 -51.343499502761446 60.140888429900265
C -28.01036001068914 -50.139308440929256 58.016500710893396
C -28.097529297476353 -49.8637472135797 56.536880534827056
H -28.1472136864823 -48.783376854905725 56.37786242394733
H -28.996044491779685 -50.339285171925034 56.13296247905485
H -27.212767093092985 -50.26652514805178 56.03411244992399
O -28.982250209584567 -50.35516995040317 58.71138938544397
C -25.934342269895318 -53.80197435265937 59.61687805669643
C -25.119841629325773 -52.68544386699256 58.916356243268446
H -26.69927921493661 -53.386292443697194 60.28168099792974
H -25.26864310419601 -54.38000385006892 60.2714326082135
O -23.77262055950313 -53.180252265414474 58.795187072779186
H -25.560054731438218 -52.48327724121697 57.92962636627523
C -22.995652068953135 -52.74786479177206 57.77218293919536
C -21.61202155419104 -53.33955295818054 57.867635819462855
H -21.676676814008733 -54.370427661203706 58.232015160321815
H -21.01851642338638 -52.74503308743793 58.567379424650305
H -21.144814231238733 -53.32657849529488 56.87844877411069
O -23.362042470552886 -52.02497334029342 56.86884589633999
C -25.677733314708455 -55.25749408741321 57.47949254026285
C -26.60906090638254 -54.770517200807916 58.61489721213045
H -24.651196754816656 -55.35639055384885 57.84203908918044
H -25.650536222222193 -54.50615416264252 56.679075995202794
O -27.727341103111428 -54.1182507422527 57.97790238589729
H -26.958766686783665 -55.645459233645695 59.17894390906939
C -28.90817153630721 -54.02559409744238 58.64643831927049
C -29.99150097976837 -53.42585263719374 57.780950978063835
H -30.83490775764381 -54.12130666594417 57.73605987729137
H -29.6192919765721 -53.24361536194149 56.76767390171785
H -30.32398455916197 -52.48212762244098 58.22185375188537
O -29.105668366776847 -54.44410563639955 59.76881782002508
C -25.58247959599436 -57.00252690218307 55.553601903583946
C -26.182902525891784 -56.60175128105331 56.9210878255449
H -25.81556159899612 -56.218359300741525 54.82479762071638
H -24.488309728784174 -57.047741602217656 55.59526078727079
O -25.99587328824632 -57.65590235829055 57.897342720859314
H -27.26200298766073 -56.49028714869545 56.759055789799596
C -24.766234341348007 -58.06542329028118 58.31666146183369
C -24.88058977548542 -59.25536316226158 59.23381531793118
H -25.93173967295207 -59.46709974347466 59.4525935692087
H -24.345044674921695 -59.04023745221693 60.161799926715176
H -24.438353919778493 -60.12854124744482 58.746469260716296
O -23.698856559620808 -57.62278347150247 57.94133337614509
C -25.17157267429046 -59.51968790945326 55.15637998176397
C -26.188859804748777 -58.361592958291624 55.1051059308434
H -24.58384283543777 -59.4401342033315 56.07332263229588
H -24.464084987043112 -59.428595133038556 54.3225984885186
O -26.689633103837902 -58.29468380222065 53.760375984812136
H -27.02318876941186 -58.61365003249247 55.77328940120879
C -27.80444017482618 -57.56905867134915 53.51131524137343
C -28.262871772599652 -57.781284777536484 52.091502369895146
H -28.49000603251527 -58.84328399142366 51.949172514714945
H -27.46590564906995 -57.49333859904648 51.3995832660694
H -29.15791181966414 -57.18049645163942 51.90393981601884
O -28.410712185783087 -56.909288305867264 54.33123531282075
C -24.865613697843806 -62.07744052241293 54.93278254074618
C -25.86265832680357 -60.9024109526384 55.12729636549389
H -25.43150010153256 -62.99684748824305 54.74818040288408
H -24.290612473511885 -61.905413238014646 54.01388798997371
O -26.585063786265682 -61.01693549105679 56.37053882464632
H -26.576684494161626 -60.90956755663835 54.296639038224
C -27.48289560103137 -62.018959065588696 56.55458821605213
C -28.240956387757315 -61.8219453696774 57.843320192551445
H -29.167390291698958 -62.40175624247754 57.80781028674776
H -28.47620313804469 -60.76175528698043 57.978935254510674
H -27.621614691580998 -62.15944079641448 58.679410624448025
O -27.710121758616573 -62.92683754809086 55.77808352558424
C -23.1353870797263 -63.668550308231 55.95781407169128
C -23.888305317943654 -62.3183624462568 56.11251259766104
H -22.053908135724946 -63.481755831393194 55.96400899740521
H -23.33787041230812 -64.09573377252187 54.97180586794091
O -22.90776893636339 -61.26145353324381 56.103757371154764
H -24.449995854941463 -62.29785798991344 57.05416224477888
C -22.13097780077366 -61.07779822311031 57.20303373255302
C -21.126437536914032 -59.97825018132269 56.9749301111749
H -21.636761162904335 -59.0973924009526 56.572824866845025
H -20.374910538936348 -60.32174445186581 56.257084279944614
H -20.647015609256734 -59.717353881278484 57.92430099018089
O -22.189511035507408 -61.74385090126164 58.217023688301616
C -22.452026673286856 -65.90040491005826 56.96959246699997
C -23.455006564828818 -64.7228201723574 57.0465375298466
H -22.462100761912634 -66.31278195523464 55.951722173028315
H -21.441090581888773 -65.49807726612578 57.120734175460996
O -24.753818407277226 -65.29519708526269 56.81253727880232
H -23.379431048275258 -64.26786521090821 58.0433817926833
C -25.805518768152577 -64.91781459557511 57.58104059526351
C -26.974884505900885 -65.84797557113235 57.37002208676062
H -27.299307608519186 -65.7897411584228 56.32729574506598
H -27.79701003618794 -65.55848569691547 58.03226259078928
H -26.66402229537446 -66.87202171508014 57.59698825413426
O -25.793203331603642 -64.02489231867808 58.40347581912228
C -23.63834015133716 -68.16300639252681 57.437980279957614
C -22.727190156814743 -67.04267162219831 57.99141690674953
H -24.543616293545934 -67.76118616607654 56.975159124474146
H -23.093726868319226 -68.67384343115883 56.63414484162332
O -21.48024085989041 -67.70243779561399 58.28893433030041
H -23.177817902590732 -66.6320366562296 58.90421639155477
C -20.641701727529345 -67.14559083031388 59.19763240487479
C -19.399038436442467 -67.9881179934763 59.356591029424116
H -18.714190568285836 -67.49606802409203 60.052968086132815
H -18.915590667662457 -68.10140110105777 58.382284972582475
H -19.676133534553216 -68.97262472668078 59.747380907591385
O -20.859994071280724 -66.12696741066952 59.818591366169
C -24.172371432463287 -70.63185918238024 57.9670392868857
C -24.03055719167486 -69.19042244830794 58.53315648568521
H -23.166467553088935 -70.92096955863312 57.64713169741252
H -24.441638197975692 -71.34426753227804 58.74942513925421
O -25.222540954302374 -68.72148288843408 59.21369912859427
H -23.2179879008454 -69.23428299320562 59.26842260091301
C -25.61682943070125 -69.34967752241445 60.35862054040266
C -26.74785099638971 -68.62263281373882 61.04451133311997
H -27.1872635851028 -69.28074663647143 61.803303263235684
H -27.516790791970696 -68.32131126498533 60.328833189658354
H -26.33425586847593 -67.73561141652047 61.53311444510639
O -25.04426287884325 -70.28474448514434 60.87726021195175
C -25.2055143356379 -72.28777152209388 56.28129592717639
C -25.122869141356468 -70.81008995229874 56.75854245691755
H -26.028362003900387 -72.40628624919329 55.56467293403736
H -25.44061039369537 -72.9297279885777 57.143433612598756
O -26.451656557674877 -70.38205675085098 57.12133839224786
H -24.725789004384445 -70.19716334480403 55.94203190668117
C -27.130010266156035 -69.58384796979303 56.25769133584586
C -28.470777051269543 -69.19593034633279 56.81798657529141
H -28.946978800389946 -68.49557508226927 56.123947521467194
H -28.344679121764297 -68.72269335786312 57.795977104345056
H -29.091279485215416 -70.0904476384876 56.9258501164128
O -26.673957322952994 -69.11304670181187 55.235565766718864
C -23.698352522955854 -72.15607965794014 54.19843665125092
C -23.896202342049435 -72.77421003003141 55.616192618328114
H -24.090456812163236 -72.85999901858852 53.456340801586244
H -24.3027172746915 -71.25493449880109 54.09313997979461
O -23.97730470762254 -74.20792683963 55.49820767787871
H -23.07009601832101 -72.51400980693485 56.28689490384413
C -22.831849536184585 -74.93111054830038 55.594004357047716
C -23.06934203985925 -76.38603896647925 55.26904723884002
H -23.97439922211995 -76.4908693463699 54.664267057046416
H -23.187379886453424 -76.9569908692834 56.193702018450075
H -22.210592154337203 -76.76330992146202 54.70700358338052
O -21.734867892291327 -74.47151002124386 55.842551351579154
C -22.069585532840232 -71.05854410175021 52.49837356571306
C -22.22768676243156 -71.83084151499226 53.844969550669695
H -21.077890329430026 -71.30566058288865 52.0927581218713
H -22.771861014355295 -71.49302397576314 51.77678733584133
O -21.64057243718488 -71.1182116918583 54.95509820279531
H -21.724441402623633 -72.80489224212981 53.741908700709146
C -20.290381995255366 -71.18926462980363 55.10005926836642
C -19.862708373808587 -70.57304894068712 56.40869582142661
H -20.34352950183524 -71.11214950275873 57.2317118642941
H -20.16902514620785 -69.52443878706333 56.432280364331106
H -18.774677299476693 -70.65379012794597 56.5000529337288
O -19.515385062895106 -71.63597733007173 54.27824652920295
C -23.508595039978054 -68.87163607358055 53.05231260089116
C -22.179316141960683 -69.4967514454373 52.527363600364325
H -24.36115369547082 -69.37845040990534 52.592373792526374
H -23.57160082291944 -69.07728096347701 54.12671890233183
O -21.867705760694196 -68.95322915512716 51.22738224271992
H -21.39037633340554 -69.14795009624673 53.201369006336584
C -22.663722267763035 -69.16693139664127 50.14507223054884
C -22.253532976426474 -68.25865834383477 49.01247085900704
H -23.093917924188858 -68.1480259370793 48.31975445227921
H -21.390611003533827 -68.68837560168564 48.49557949033836
H -21.98543020571076 -67.2747287295495 49.411767188149945
O -23.65857872325374 -69.86422732215313 50.111902587303234
C -24.79313632871422 -66.68691938923885 53.643392550382806
C -23.628651321516102 -67.3291077134563 52.826939848599295
H -24.518183834651325 -65.68091254493139 53.959886239443314
H -24.925751967691724 -67.24648845457129 54.576312859638406
O -22.3754541574326 -66.74409977361101 53.242912922548854
H -23.771547331317166 -67.1236634140205 51.75364777734736
C -22.04528044884041 -65.48006925260118 52.86293845747242
C -20.659785896929957 -65.12073856482864 53.34134084401681
H -20.095713097695906 -64.67491548632643 52.513996949472904
H -20.141578676232125 -66.02164068250435 53.6878521725243
H -20.736558129265674 -64.40469604732493 54.163496837408054
O -22.76795220493257 -64.70725687329136 52.26814093786413
C -26.18455886751476 -65.44913188912095 51.83325775344924
C -26.15748080295152 -66.57735525382145 52.90744440285584
H -26.218940715997995 -65.89968853529756 50.834333458479406
H -25.245960928132238 -64.89259593155913 51.86334506186397
O -26.38361587343444 -67.82836158983682 52.23884256532687
H -26.919382250010035 -66.38429865275882 53.66656175462451
C -27.60404648799945 -68.43038103191007 52.257796625532684
C -27.591977114338558 -69.65231932166648 51.37239296264971
H -28.03087245760472 -69.395281568699 50.40167910614579
H -28.182911920897343 -70.44575738250693 51.84156695810035
H -26.562716117982145 -69.99389951581603 51.22090417645032
O -28.595346249045694 -68.02631195503558 52.83389343585493
C -28.743026528205064 -65.02690972290915 51.930899811811884
C -27.328676599753454 -64.40555042885512 51.94325325593192
H -28.82742200912762 -65.7193282137959 51.08171857893049
H -28.873704859360423 -65.6102353556106 52.84632805585939
O -27.209296953769247 -63.553884773114255 50.78349212063027
H -27.203642307947394 -63.84408262788235 52.87856261349409
C -26.63401787085256 -62.329224446549944 50.91905627997162
C -26.416506885018254 -61.66793529347835 49.577107556259996
H -25.49570808263982 -62.061345999042544 49.13826621558444
H -26.316508088263742 -60.5913565762101 49.72213409235839
H -27.256685797585213 -61.8805840952451 48.91145547597708
O -26.368222449977274 -61.79102331533751 51.97570658948909
C -31.276381410169375 -64.6613223497526 52.22278877120578
C -29.908600755669827 -64.01173660919315 51.85954205499406
H -31.2335349825421 -64.98329238524761 53.27197246336027
H -32.059025859469656 -63.89127887917242 52.17628867017049
O -29.666677988542702 -62.976836297994524 52.830591482482966
H -29.939045820794004 -63.57919753118595 50.851850567481
C -30.3515442345494 -61.80673105647844 52.7417894619131
C -30.17441696832911 -60.988720752708865 53.997308057748356
H -30.01277077639984 -61.67001608053711 54.835294116650395
H -31.074931117377734 -60.39306206993157 54.1762349729826
H -29.304467398148674 -60.34243001853452 53.88915792014672
O -31.07501976801189 -61.47477062120284 51.823647718012516
C -33.13948287428613 -66.36146810234476 51.66421070651933
C -31.703134330748536 -65.84855261050134 51.32426844715094
H -33.72526932693782 -65.52968989793973 52.08307927846824
H -33.66365303476306 -66.65283181301601 50.75528673776866
O -31.671967072945275 -65.3328088763047 49.98259552774103
H -30.974202163885693 -66.65883017240171 51.430032943998555
C -31.706085191028915 -66.18081310306204 48.9245347707804
C -31.648039409811844 -65.41511311896599 47.62731855070055
H -31.060129584260252 -65.98383591966046 46.90227688087037
H -31.185786534388484 -64.43712266305413 47.790095782855865
H -32.66859489299184 -65.27914158763843 47.258724168730765
O -31.773693355921534 -67.3893656179983 48.989147576640214
C -32.71276614639972 -68.90014841228736 52.039863974908585
C -33.1805018281319 -67.5519508262643 52.66306570073745
H -31.90589039761078 -68.7178122812021 51.32647286106069
H -32.26138216924695 -69.5175500591737 52.82695019737205
O -32.346001317383866 -67.15986201513701 53.77035977267591
H -34.20549969726981 -67.66201004194234 53.0416718117646
C -32.335685641725405 -67.86271052270064 54.93328949637003
C -31.477965529974316 -67.15731099287346 55.961349146009724
H -32.06002974671209 -66.36430107303474 56.435797346165266
H -30.61108009093942 -66.71546546226548 55.45891795403313
H -31.15272772006369 -67.87691568199385 56.7160875300876
O -32.94964871395479 -68.88790683421294 55.15807083189463
C -33.60863751809899 -71.26628247871557 51.50910702011883
C -33.839197937143254 -69.74491716715455 51.3650683379914
H -33.690542565247654 -71.54217127392673 52.56437666619443
H -34.424614883437016 -71.81370425104875 51.015295282275765
O -33.901522546681775 -69.55592020508819 49.948056068681225
H -34.80484903484021 -69.52161738845349 51.83200921899105
C -34.88835476134077 -68.86120307630232 49.350101972547805
C -35.0282303659515 -69.3396493512299 47.91370263140249
H -35.093572551950835 -68.49400792000176 47.22498889659007
H -35.918534446896246 -69.9774293742706 47.827401845407586
H -34.159819571391964 -69.94789783230871 47.655892881474784
O -35.66473874631012 -68.11175468708771 49.9061251733108
C -32.115624675533724 -73.31684840430322 51.28181727826038
C -32.24385680712103 -71.79877531519332 50.96623185947657
H -32.33817422121188 -73.4601309147022 52.35041915077054
H -32.92257220944598 -73.85008885327997 50.748662787434306
O -32.163066127200025 -71.64449420604863 49.529072047417046
H -31.431813046750417 -71.27537961982486 51.48060872259633
C -31.33991490453641 -70.6805511783223 49.01722109848248
C -31.278727144230952 -70.76800106553134 47.50975694129136
H -32.2805593014346 -70.72144659042547 47.0852586496101
H -30.811573583711752 -71.71043353860829 47.215080517761585
H -30.684101910133666 -69.93178518833051 47.13261641351428
O -30.504360097263245 -70.08022288405151 49.663696924125325
C -29.7745318273902 -73.34528867087194 50.00474683869617
C -30.771163942866927 -74.04542190273115 50.9585449693542
H -29.435812892746686 -72.39016661963056 50.41716992309669
H -30.281370942837615 -73.10111562474403 49.0671544727945
O -30.144031457169106 -74.49507853958956 52.17702412564358
H -31.079341687778836 -74.96288202751597 50.448081408489344
C -29.624411159235894 -73.62863102467033 53.087959770936976
C -29.40247268604175 -74.35029664853174 54.396630352654526
H -30.361305760229317 -74.74790578131265 54.734778150774304
H -29.018065546590936 -73.64848424045603 55.13617774465197
H -28.694409235502828 -75.17336895273667 54.25627639987199
O -29.578240348217626 -72.42475082119378 52.96823553827209
C -28.910638633866647 -75.52006369153807 48.85613154205839
C -28.561244332934436 -74.22145788147773 49.64412928479223
H -27.969815925405292 -76.01156890052636 48.56770017971925
H -29.40264320520606 -76.23950215827979 49.528097028042204
O -27.675948257496277 -73.39623411026453 48.85132277861404
H -28.06400826369943 -74.50474406771401 50.57927139064536
C -26.341885789338416 -73.67132739844115 48.86396176008916
C -25.555940738332346 -72.75524877254006 47.9540345498321
H -26.124475084183707 -72.55519743640306 47.04087255954934
H -24.605214298708873 -73.23485254357038 47.68843807053626
H -25.349346158477132 -71.81456172901524 48.478986410214546
O -25.819697423292652 -74.54218939758685 49.533575737549626
C -31.302676174840038 -75.59078275338811 47.845529267736275
C -29.79147975779499 -75.32200097172122 47.57875002762529
H -31.41383306685893 -76.48703477851765 48.47218348882468
H -31.69194205873249 -74.75179963325013 48.43338684892493
O -29.31855483328402 -76.23672675928736 46.563775304128285
H -29.668745358215645 -74.27806098001648 47.24746059090963
C -28.78427397064295 -75.73223775781051 45.42238918313136
C -28.449821019433006 -76.81332340912867 44.418437541895116
H -27.94472711523803 -76.34590375076044 43.56725821829991
H -29.37381281737737 -77.2850343887244 44.064786740877544
H -27.799812795685565 -77.57341530044003 44.865141813000065
O -28.57971073276576 -74.55853754237954 45.212370169690914
C -33.70990726178647 -75.68406823013488 46.96625087958677
C -32.19434490771659 -75.72532354085531 46.579410072195024
H -34.071405028799006 -76.70264224016317 47.171060866012844
H -33.850223726261554 -75.1384655140654 47.90515122893958
O -32.01644952673076 -77.04546307107657 46.04822761373923
H -31.92225568483743 -74.93365272222415 45.86445043716597
C -32.100306365840936 -77.24873954471312 44.72009197089234
C -32.520802304690704 -78.67506296612538 44.45660555199814
H -32.21640833200531 -78.97255244891699 43.447434477788626
H -33.60785595765239 -78.74247618176273 44.57750660220081
H -32.03912319135928 -79.32374843117394 45.205447984833626
O -31.880215128653347 -76.42312181062496 43.855568047294874
C -36.175360925352784 -75.2256255166385 46.3016485163277
C -34.67528999077482 -75.02935735884513 45.940093234979464
H -36.74231498632254 -75.22878542755595 45.36586216372744
H -36.32450465518808 -76.22411550698239 46.715809870191016
O -34.53271864205467 -75.6135241409026 44.630496705026545
H -34.43204706167261 -73.96254582858535 45.911613832833936
C -34.764826915281844 -74.81267106135603 43.55903401109814
C -35.313819415391826 -75.61221955483778 42.396436023230436
H -35.95079527640982 -74.95657873249368 41.79873509086012
H -35.930283898493286 -76.42870079303815 42.773682505972495
H -34.494530394790345 -75.99821138885873 41.78831377829033
O -34.943121579110674 -73.61562323037698 43.625587096665306
C -37.83685563633837 -73.21222053528501 46.698353087044836
C -36.741247749345874 -74.15959542374786 47.27232219655323
H -37.32504984073781 -72.49591532227544 46.04420175944165
H -38.242585853988984 -72.61014810454616 47.5155368354328
O -37.1780094783685 -74.80749728680198 48.48558501553028
H -35.88472932543278 -73.52942147748125 47.52539008654363
C -37.1252448288039 -74.07367389158448 49.635512494281784
C -37.449596600923144 -74.92277276323672 50.839992072390935
H -38.349337800800676 -74.51323380555881 51.319860195302866
H -36.58916469258033 -74.87032409403798 51.52472775001029
H -37.64090650345644 -75.95514821550205 50.522708828659624
O -36.731675055801844 -72.92704727410468 49.72485147718363
C -40.04089499253298 -74.73576240737646 46.648280236822885
C -39.03876854600308 -73.82459969367724 45.895996225076225
H -40.663579816311284 -75.23567957165577 45.88990000956541
H -39.458321501578986 -75.55352809608812 47.09996445837996
O -39.74737630739815 -72.94034213990626 44.98424136268742
H -38.58776796230838 -74.52547195034299 45.20178636966986
C -39.811379105184116 -71.58880754600283 45.08862207622123
C -40.56932776966417 -71.01272233451803 43.91309152743849
H -41.44176348975364 -70.46163234096835 44.27784073349845
H -40.91053243792345 -71.80075443081553 43.24398866571761
H -39.904665980239756 -70.343770972981 43.3593722559869
O -39.284716043531674 -70.89061468609665 45.929183929904184
C -42.2975841975379 -73.52203817184446 47.187404500881314
C -40.993712961453205 -74.14861276582668 47.74756714501871
H -42.00551208484133 -72.63269787282368 46.6257115834232
H -42.71997508167914 -74.17111588493921 46.41646049944018
O -41.23649684760553 -75.24367280531425 48.67377970406886
H -40.439475259530056 -73.36660889179458 48.283748048040934
C -41.866144331106256 -76.3900570648404 48.28126709786128
C -41.63740305660623 -77.51751688828271 49.254890698573355
H -41.43301098516571 -77.11747851155226 50.24763692408878
H -40.77206991120384 -78.09970327852179 48.93488942593775
H -42.5300986094192 -78.14779195967907 49.27981206218509
O -42.47480521843388 -76.53636845497105 47.24059654895755
C -44.6734273958251 -74.01793491112043 48.08214245756353
C -43.389741496388176 -73.13424141820151 48.236112883813405
H -44.70135605915219 -74.4409008370708 47.0707582846353
H -44.5757839330902 -74.8800336046323 48.75041124093612
O -43.773882595271004 -71.78503417063972 47.99449061812618
H -42.9943132538385 -73.19582022621614 49.25618210469872
C -42.94233337074871 -70.74418610230965 48.21675194145964
C -43.65819139022278 -69.45770995892343 47.908660561423154
H -44.22289985059279 -69.15852827228365 48.790532759174
H -44.367214755402706 -69.62426796341389 47.097318396384814
H -42.941500469951364 -68.68499901257263 47.617969973013146
O -41.80129466019514 -70.83314923702459 48.61620345501283
C -46.64236938761175 -73.64642887410685 49.70583267045567
C -46.04934642283067 -73.3063004021638 48.323297981626496
H -45.96580889863176 -73.29395025841134 50.493570640994434
H -46.671827552190976 -74.74103149623113 49.80477475542575
O -46.97536219316731 -73.56123079500564 47.23302611741401
H -45.933530302383375 -72.22175833095687 48.31556674455034
C -47.444418107413824 -74.80423927454213 46.92256128992022
C -48.33329807704524 -74.71105544003132 45.69590498003797
H -47.87866279270076 -74.02396961588389 44.965995616839606
H -49.33017369316461 -74.33733778930127 45.97415780305948
H -48.44864641150029 -75.70092347845369 45.24106454840475
O -47.137767573356925 -75.85434776256452 47.45712135515701
C -48.21812243152806 -71.67376798573332 50.570788856669665
C -48.08163202178433 -73.0939657303687 49.953997040753976
H -49.23166711523124 -71.60494806653531 50.98038754179768
H -47.55136608244442 -71.56679141416349 51.4280767745198
O -48.694107938367665 -73.99722384536594 50.88390884264543
H -48.63608971365738 -73.12717517755344 49.00790505234031
C -49.83152412620389 -74.65288785966807 50.55006210236283
C -50.11944268748198 -75.6762038933899 51.6142628809753
H -50.582471937725174 -76.56288741371999 51.17217023435669
H -50.770518735942176 -75.24535505967535 52.382908879864424
H -49.16248109067011 -75.94281149402747 52.07943554731497
O -50.47439945621224 -74.50576193488192 49.53074767966369
C -48.78007275560678 -69.19898281752506 50.14282444870537
C -48.02187043019528 -70.45482410535651 49.6190532166599
H -48.16932646717372 -68.28678080213501 50.07253800418317
H -49.05375039463359 -69.32474502144726 51.200987119546355
O -48.451862717808424 -70.76871594151808 48.2699275079936
H -46.942420154382404 -70.23091718881014 49.57385659322166
C -49.75583908109874 -70.99665199270456 47.95272851595599
C -49.871549895643 -71.47211523918239 46.52351975631089
H -50.574555939106034 -72.3145210107565 46.476138864877036
H -48.887918639608145 -71.79824810161409 46.15442176364039
H -50.230403327958484 -70.66489763817454 45.89110564456249
O -50.69026451679163 -70.92785195564124 48.72585263925717
