62

 N   -8.041037281360    0.636585871485   -2.466679427391
 C   -7.094113749487    1.648380440061   -2.465341885851
 C   -5.923833239541    1.075494952759   -1.731518987551
 C   -7.624729594525   -0.517204850500   -1.824628310724
 C   -6.238842022132   -0.210819061741   -1.350200205281
 H   -8.941365661923    0.731965383578   -2.890168916497
 O   -7.213758151907    2.721820942139   -2.949170002726
 O   -8.248683013862   -1.514559197303   -1.694810038854
 C   -4.707659965553    1.656332324351   -1.434351037136
 C   -5.338735661876   -0.982949453658   -0.646641593404
 C   -4.107249994250   -0.414615982359   -0.350194639794
 C   -3.772891415750    0.890186590259   -0.737853882354
 H   -4.521139469947    2.669825776349   -1.744897642155
 H   -5.578435488185   -1.989623840247   -0.337779909490
 H   -3.388544147349   -1.004571302867    0.196977500586
 C   -2.390014621725    1.439402335668   -0.306818289846
 C   -1.986833946601    2.719374955282   -1.086144126907
 F   -2.097089165317    2.528120811514   -2.387126147299
 F   -0.739675197358    3.054052342765   -0.845042295205
 F   -2.736328858700    3.758552884595   -0.773888958559
 C   -2.521031092632    1.814885674060    1.193460346505
 F   -3.594994687647    2.537154437375    1.414462605947
 F   -1.488061574503    2.507908591588    1.632824183119
 F   -2.615895015259    0.730684295664    1.939600439585
 C   -1.266582421889    0.404934234986   -0.566094461235
 C   -0.244950105116    0.153230111146    0.349166194155
 C    0.727029599768   -0.760080860498   -0.007417667382
 C   -1.254991442164   -0.251174276471   -1.805375075264
 C   -0.265038574632   -1.159607058995   -2.153405404661
 C    0.723815325665   -1.402417649975   -1.222808576812
 C    1.907508499174   -2.309743491020   -1.279397511982
 N    2.567412839569   -2.144206740044   -0.059106171066
 C    1.917268084508   -1.220152699546    0.764593891914
 C    3.766055464487   -2.831729091748    0.301368557465
 C    4.856560149526   -2.114042804253    0.766832146100
 C    6.019121936447   -2.784836857368    1.126002648801
 C    3.834701946359   -4.212990031839    0.186080392803
 C    5.003805236095   -4.876994281689    0.527768358289
 C    6.095034795140   -4.167790011573    1.000114314416
 C    7.215149015706   -2.058513757280    1.647550907732
 H   -0.271821447584   -1.654544074847   -3.113136441879
 H   -2.039473690911   -0.049253841626   -2.517910529377
 H   -0.184326344688    0.636337053268    1.308983508689
 O    2.261574144584   -0.880883517077    1.844559523734
 O    2.230548161261   -3.030807346341   -2.159937498350
 H    5.056148341307   -5.952010996745    0.428787540065
 H    4.802155271557   -1.042965469193    0.860539365687
 H    2.983378382754   -4.765895949638   -0.180951514652
 H    7.009430387149   -4.669880887093    1.277086658681
 O    8.239726695550   -2.593125532544    1.924065424692
 O    7.014825873438   -0.756825127341    1.771561360274
 C    8.098589343858    0.030980562813    2.266108140190
 C    7.607532066950    1.453777885112    2.430222354197
 H    8.923971585113   -0.024539539505    1.558345248156
 H    8.440392463246   -0.391048171217    3.210285530811
 H    7.225815760801    1.813031702654    1.468972184381
 H    8.462220708207    2.083895618195    2.688512355735
 C    6.539758738500    1.618392623874    3.504939882169
 H    5.668828758286    0.997677038327    3.277338544567
 O    6.174126271271    2.960162128244    3.677003093352
 H    6.931588222786    1.284922898756    4.466919539544
 H    5.680651599310    3.247590452965    2.923585935766
