850
xyz file written from pySIMM system module
C 28.3611 62.9193 -61.3584
C 28.7982 64.2549 -61.9371
C 28.1505 64.7556 -63.0769
H 27.3422 64.1859 -63.5237
C 28.5353 65.9863 -63.6381
C 29.5653 66.7172 -63.0349
H 29.8554 67.6727 -63.4617
C 30.2269 66.2336 -61.8946
C 31.3518 67.049 -61.2721
C 29.8419 64.9953 -61.3473
O 30.4859 64.5149 -60.2414
H 31.096 67.3495 -60.2488
H 31.5606 67.9597 -61.8467
H 32.2812 66.4673 -61.2309
H 27.4937 62.5007 -61.8843
H 28.0904 63.0287 -60.3019
H 29.1764 62.1885 -61.4154
C 29.241 64.3141 -66.2106
C 27.7809 64.7053 -66.3695
C 26.9933 63.9441 -67.2403
H 27.4293 63.091 -67.7464
C 25.6388 64.2482 -67.4404
C 25.0829 65.3526 -66.7838
H 24.0356 65.5893 -66.9445
C 25.8509 66.1241 -65.8948
C 25.2024 67.2924 -65.1646
C 27.199 65.781 -65.6616
O 27.9278 66.5103 -64.7528
H 25.1834 67.1163 -64.0832
H 24.1684 67.4502 -65.4947
H 25.7552 68.2235 -65.3383
H 29.6061 63.744 -67.0743
H 29.3781 63.6936 -65.3177
H 29.8789 65.1993 -66.1069
C 25.6832 61.9925 -70.5656
C 25.4231 61.3221 -69.2286
C 25.6739 59.947 -69.0914
H 26.0492 59.378 -69.9348
C 25.4591 59.3002 -67.8683
C 24.9475 60.0367 -66.7893
H 24.7481 59.5456 -65.8422
C 24.7011 61.4094 -66.9016
C 24.141 62.1392 -65.6924
C 24.9669 62.0668 -68.1216
O 24.8462 63.4341 -68.2107
H 23.7007 61.4401 -64.9718
H 23.352 62.8415 -65.9887
H 24.93 62.6969 -65.1737
H 26.0612 61.2869 -71.3162
H 26.4191 62.7978 -70.4594
H 24.7575 62.4331 -70.9549
C 28.2429 58.6977 -66.3278
C 27.1638 57.8026 -65.7425
C 27.2934 57.389 -64.4112
H 28.1595 57.7007 -63.8354
C 26.3023 56.6037 -63.8057
C 25.1964 56.1958 -64.5608
H 24.4321 55.5877 -64.089
C 25.0368 56.611 -65.8928
C 23.7728 56.2298 -66.6518
C 26.019 57.432 -66.4832
O 25.791 57.9743 -67.7259
H 24.0217 55.6941 -67.5763
H 23.1926 57.121 -66.9229
H 23.1205 55.5794 -66.0554
H 29.1321 58.7427 -65.6862
H 27.87 59.7211 -66.4529
H 28.5597 58.3297 -67.31
C 25.6743 59.0789 -61.7954
C 26.8244 58.2932 -61.1896
C 27.5868 58.9281 -60.2011
H 27.3558 59.9526 -59.9272
C 28.6184 58.2447 -59.5375
C 28.9018 56.9238 -59.8976
H 29.7002 56.3969 -59.3848
C 28.1597 56.2693 -60.8943
C 28.4952 54.826 -61.2484
C 27.1082 56.9515 -61.5406
O 26.3544 56.2773 -62.4745
H 28.6133 54.7042 -62.3324
H 27.6997 54.1477 -60.9161
H 29.431 54.4977 -60.7787
H 24.7172 58.7129 -61.409
H 25.6629 59.0087 -62.8874
H 25.7385 60.1453 -61.5529
C 26.9887 58.9874 -56.7979
C 27.8692 60.1744 -57.1507
C 27.5142 61.4388 -56.6626
H 26.6338 61.5521 -56.0398
C 28.2882 62.5652 -56.9597
C 29.4409 62.412 -57.7475
H 30.0617 63.2747 -57.9628
C 29.8096 61.1596 -58.2586
C 31.0558 61.0412 -59.1268
C 29.0125 60.0362 -57.9687
O 29.3382 58.8228 -58.5212
H 31.8041 60.3993 -58.6462
H 31.5232 62.0176 -59.304
H 30.8167 60.6081 -60.1061
H 26.2869 59.2222 -55.9877
H 27.596 58.1348 -56.473
H 26.4025 58.6712 -57.6687
C 27.9102 65.9666 -58.3681
C 28.8962 65.8589 -57.2164
C 29.9107 66.8198 -57.0927
H 29.972 67.634 -57.8066
C 30.8469 66.7419 -56.0462
C 30.7472 65.7041 -55.115
H 31.4656 65.6511 -54.3027
C 29.7415 64.7321 -55.2196
C 29.6821 63.6088 -54.192
C 28.8228 64.8006 -56.2878
O 27.9115 63.7904 -56.4679
H 30.051 62.6698 -54.6227
H 28.6545 63.4412 -53.8451
H 30.2925 63.8333 -53.3081
H 27.8849 65.0434 -58.9585
H 28.1661 66.7873 -59.0473
H 26.8967 66.1528 -57.9944
C 33.6023 67.4515 -58.2079
C 32.8487 68.7155 -57.8315
C 32.9635 69.8494 -58.6485
H 33.5906 69.8231 -59.5332
C 32.2474 71.0163 -58.3545
C 31.4082 71.0392 -57.229
H 30.8219 71.9242 -57.0096
C 31.2933 69.9245 -56.3876
C 30.3711 69.9914 -55.1766
C 32.0155 68.7548 -56.6946
O 31.8733 67.6425 -55.9069
H 29.566 69.2509 -55.2554
H 29.9016 70.9775 -55.0724
H 30.9255 69.7906 -54.2515
H 34.0843 67.5342 -59.1902
H 32.9219 66.5917 -58.2441
H 34.3797 67.2352 -57.4667
C 31.645 74.6479 -58.0131
C 30.7375 73.9079 -58.9805
C 29.4414 74.3944 -59.2065
H 29.0937 75.2797 -58.6856
C 28.5558 73.7006 -60.039
C 29.0086 72.5562 -60.7166
H 28.3391 72.0151 -61.376
C 30.2972 72.0512 -60.5039
C 30.7087 70.7635 -61.2075
C 31.1508 72.7063 -59.5938
O 32.3145 72.0948 -59.202
H 30.5635 69.9022 -60.5446
H 31.7644 70.7864 -61.5077
H 30.1167 70.591 -62.1157
H 31.2312 75.6216 -57.7214
H 32.6259 74.8249 -58.4692
H 31.8011 74.0639 -57.0993
C 26.1601 73.945 -62.7987
C 25.7364 73.0298 -61.6636
C 24.8813 71.9585 -61.9422
H 24.4937 71.8299 -62.9457
C 24.5446 71.0323 -60.9498
C 25.0152 71.2188 -59.6446
H 24.7449 70.5015 -58.8756
C 25.8568 72.3009 -59.3346
C 26.3628 72.4599 -57.9059
C 26.2523 73.1872 -60.3619
O 27.2467 74.1092 -60.1354
H 25.6887 71.9772 -57.188
H 26.4308 73.5174 -57.6206
H 27.3567 72.0113 -57.7868
H 25.6917 73.6651 -63.7494
H 27.246 73.907 -62.9422
H 25.8824 74.9818 -62.58
C 26.616 69.0783 -61.9827
C 25.547 68.1734 -61.3905
C 25.8755 66.82 -61.2263
H 26.8616 66.4664 -61.5099
C 24.9395 65.8981 -60.7507
C 23.6685 66.3539 -60.3783
H 22.9386 65.6437 -60.001
C 23.3112 67.7043 -60.5326
C 21.9075 68.148 -60.1427
C 24.2444 68.624 -61.0563
O 23.8252 69.9191 -61.2876
H 21.9479 68.9115 -59.3559
H 21.3083 67.3122 -59.7601
H 21.3729 68.573 -61.0014
H 27.4613 68.5103 -62.387
H 27.0114 69.7575 -61.2185
H 26.2128 69.6817 -62.8026
C 23.7429 64.6152 -63.2625
C 23.624 63.529 -62.2068
C 22.7433 62.4684 -62.4588
H 22.1733 62.4684 -63.3801
C 22.5673 61.4302 -61.5321
C 23.3301 61.4447 -60.3584
H 23.2129 60.6355 -59.644
C 24.2392 62.4837 -60.0929
C 25.0666 62.4433 -58.8172
C 24.376 63.548 -61.0079
O 25.2639 64.5643 -60.7223
H 24.933 63.3596 -58.2293
H 26.1315 62.3471 -59.0568
H 24.7916 61.5949 -58.1782
H 23.2267 64.3517 -64.1916
H 24.7944 64.7978 -63.5054
H 23.3015 65.5542 -62.9144
C 22.5122 57.9993 -63.1221
C 21.4516 58.9515 -63.6387
C 20.8679 58.6598 -64.879
H 21.1925 57.7931 -65.444
C 19.8794 59.4905 -65.413
C 19.4498 60.6026 -64.6759
H 18.6707 61.2425 -65.0771
C 20.0077 60.9071 -63.4245
C 19.4551 62.1117 -62.6699
C 21.0549 60.1012 -62.9195
O 21.6751 60.3991 -61.7271
H 19.6782 62.0701 -61.597
H 18.3636 62.1676 -62.77
H 19.8691 63.0466 -63.0675
H 23.4959 58.2663 -63.5226
H 22.2915 56.9709 -63.4273
H 22.5659 58.0018 -62.028
C 21.7183 60.2441 -68.0161
C 20.3234 60.806 -68.2076
C 20.1593 61.9215 -69.0369
H 21.0243 62.3728 -69.5129
C 18.887 62.4688 -69.2507
C 17.7702 61.857 -68.6686
H 16.7835 62.2679 -68.8559
C 17.9133 60.7383 -67.8314
C 16.6783 60.1061 -67.2025
C 19.2024 60.2333 -67.5713
O 19.3726 59.2221 -66.6587
H 16.6457 59.0297 -67.4123
H 15.7534 60.5458 -67.596
H 16.6725 60.2371 -66.1132
H 22.4465 60.7246 -68.6805
H 21.7364 59.1704 -68.2316
H 22.0541 60.3864 -66.9832
C 19.646 64.915 -67.5023
C 20.1053 65.2893 -68.9042
C 21.0188 66.3455 -69.0294
H 21.3923 66.8305 -68.1344
C 21.461 66.7738 -70.2909
C 20.9921 66.1146 -71.4324
H 21.3385 66.4422 -72.4072
C 20.0844 65.0473 -71.3341
C 19.6011 64.3585 -72.6047
C 19.6332 64.6301 -70.0647
O 18.7135 63.6075 -69.9926
H 20.1211 64.7368 -73.493
H 18.5266 64.5216 -72.7548
H 19.7761 63.276 -72.5593
H 19.849 65.7125 -66.7762
H 20.1598 64.0102 -67.1562
H 18.5683 64.7175 -67.4797
C 20.3825 69.7746 -69.504
C 21.7766 69.6315 -68.9211
C 22.1506 70.4655 -67.8551
H 21.4516 71.2043 -67.4765
C 23.4336 70.3717 -67.2963
C 24.3411 69.446 -67.8255
H 25.3403 69.3896 -67.4071
C 23.9845 68.5912 -68.8813
C 24.9991 67.5867 -69.4193
C 22.6889 68.6778 -69.4256
O 22.3281 67.8285 -70.4442
H 25.881 67.5151 -68.7709
H 25.3445 67.8727 -70.421
H 24.5656 66.581 -69.4893
H 19.8973 70.7095 -69.1962
H 19.7505 68.9406 -69.1789
H 20.4162 69.7618 -70.5997
C 22.1072 69.7205 -64.3918
C 22.2585 71.2309 -64.4217
C 21.6178 71.9835 -63.4253
H 21.0411 71.4793 -62.6563
C 21.7585 73.3756 -63.3645
C 22.5235 74.0218 -64.3468
H 22.6455 75.1001 -64.3057
C 23.1752 73.2893 -65.3549
C 24.0157 74.0312 -66.3871
C 23.0602 71.8835 -65.3858
O 23.8515 71.1708 -66.2599
H 23.8274 73.6447 -67.3969
H 25.0874 73.9225 -66.1795
H 23.7856 75.1042 -66.4016
H 21.4905 69.3833 -63.5495
H 23.0839 69.2344 -64.3036
H 21.6299 69.364 -65.3113
C 18.8931 74.6091 -64.0837
C 19.6295 75.6868 -63.3092
C 19.251 77.0243 -63.4916
H 18.4356 77.2701 -64.1637
C 19.9357 78.0602 -62.847
C 20.9774 77.7414 -61.9619
H 21.5085 78.5425 -61.4568
C 21.3768 76.4043 -61.7671
C 22.5687 76.0937 -60.8703
C 20.7157 75.3724 -62.4667
O 21.1475 74.0698 -62.3454
H 22.331 75.2919 -60.16
H 22.8828 76.9687 -60.2873
H 23.4278 75.7655 -61.4688
H 17.9482 74.974 -64.5034
H 18.6651 73.7528 -63.4392
H 19.5157 74.2504 -64.911
C 21.937 78.637 -64.9901
C 21.704 80.0024 -64.3617
C 22.6621 80.99 -64.6251
H 23.55 80.7422 -65.1971
C 22.506 82.2966 -64.1565
C 21.3561 82.6286 -63.4318
H 21.2335 83.6421 -63.0661
C 20.3884 81.6486 -63.1309
C 19.1588 82.0471 -62.323
C 20.5785 80.3124 -63.5537
O 19.643 79.3617 -63.1829
H 19.0435 83.1368 -62.2805
H 19.2284 81.6775 -61.2923
H 18.2393 81.6426 -62.767
H 22.6431 78.6843 -65.8281
H 21.0002 78.2239 -65.38
H 22.3431 77.9327 -64.2565
C 24.9218 85.049 -62.6658
C 24.3223 85.3985 -64.0179
C 24.5964 86.6616 -64.5581
H 25.2364 87.3526 -64.0194
C 24.105 87.034 -65.8142
C 23.2954 86.1279 -66.5183
H 22.9145 86.4031 -67.4954
C 23.0261 84.8398 -66.008
C 22.2376 83.8564 -66.8692
C 23.5582 84.4652 -64.7507
O 23.558 83.1606 -64.311
H 21.253 83.6447 -66.4322
H 22.7713 82.9038 -66.9736
H 22.0704 84.2438 -67.8817
H 25.1907 85.9457 -62.0924
H 25.8253 84.4434 -62.7938
H 24.2107 84.4772 -62.0583
C 22.4964 90.3567 -66.6994
C 23.343 89.7719 -67.8135
C 23.1678 90.2838 -69.1021
H 22.4305 91.0582 -69.2841
C 23.9217 89.8103 -70.1743
C 24.9063 88.834 -69.9311
H 25.5284 88.4743 -70.7447
C 25.0793 88.2816 -68.6487
C 26.1271 87.1907 -68.4735
C 24.2771 88.7423 -67.5797
O 24.4524 88.277 -66.2949
H 26.4479 87.0841 -67.4314
H 27.0211 87.4052 -69.0705
H 25.7296 86.2235 -68.8058
H 21.7093 91.0147 -67.0909
H 23.1152 90.957 -66.0301
H 22.0187 89.5647 -66.1107
C 23.1464 87.4798 -72.2088
C 23.9756 88.4838 -72.9945
C 24.5553 88.0417 -74.1909
H 24.469 87.0034 -74.4883
C 25.196 88.9413 -75.049
C 25.2308 90.3018 -74.7122
H 25.6611 91.0168 -75.4045
C 24.6807 90.7624 -73.5106
C 24.6317 92.2614 -73.2381
C 24.1075 89.8408 -72.6128
O 23.63 90.3172 -71.4181
H 25.1481 92.5199 -72.3069
H 23.5897 92.5955 -73.1512
H 25.0863 92.8421 -74.0509
H 22.5229 87.9504 -71.4395
H 23.7886 86.7365 -71.7237
H 22.4588 86.9567 -72.8809
C 28.1024 89.8744 -77.1195
C 26.758 89.985 -77.8263
C 26.6522 90.892 -78.8925
H 27.5269 91.439 -79.226
C 25.4121 91.1725 -79.4789
C 24.2701 90.5056 -79.0155
H 23.2983 90.7497 -79.4299
C 24.3508 89.5763 -77.9687
C 23.0594 88.9699 -77.4315
C 25.603 89.3099 -77.3701
O 25.6646 88.5024 -76.2612
H 22.7818 89.4507 -76.4842
H 23.1636 87.893 -77.2483
H 22.2207 89.1087 -78.1264
H 28.8358 89.3381 -77.7312
H 28.0342 89.3644 -76.152
H 28.4999 90.8749 -76.9142
C 23.0015 91.9473 -82.188
C 23.1517 93.0146 -81.1185
C 22.0815 93.8976 -80.9223
H 21.194 93.8201 -81.5371
C 22.1322 94.8915 -79.9393
C 23.2869 95.0032 -79.1462
H 23.3427 95.7714 -78.3774
C 24.3741 94.1276 -79.3258
C 25.6127 94.2778 -78.4478
C 24.3007 93.1134 -80.306
O 25.3069 92.1815 -80.4055
H 25.7459 93.3993 -77.8055
H 25.5569 95.1563 -77.7928
H 26.5166 94.3841 -79.0616
H 23.3032 92.3261 -83.1731
H 21.9586 91.6205 -82.2599
H 23.6 91.0562 -81.9696
C 20.1132 95.0074 -77.113
C 20.457 96.4225 -77.5473
C 20.3181 97.4642 -76.6158
H 19.9868 97.2453 -75.6058
C 20.6551 98.7826 -76.9546
C 21.1281 99.0544 -78.246
H 21.4182 100.067 -78.5035
C 21.2656 98.0263 -79.1965
C 21.8226 98.3506 -80.5773
C 20.9242 96.7052 -78.8465
O 21.0348 95.701 -79.7795
H 22.8351 97.9394 -80.687
H 21.8809 99.4326 -80.7519
H 21.1973 97.9228 -81.3726
H 19.9855 94.9348 -76.0251
H 20.9117 94.309 -77.3915
H 19.1843 94.6715 -77.5875
C 18.636 100.766 -74.1097
C 19.9551 100.124 -73.7188
C 20.2623 100.034 -72.3549
H 19.5534 100.396 -71.6152
C 21.4892 99.5139 -71.9265
C 22.4207 99.098 -72.8932
H 23.3899 98.7269 -72.576
C 22.1354 99.185 -74.2683
C 23.2224 98.8016 -75.2662
C 20.8789 99.6776 -74.6918
O 20.5762 99.8034 -76.0335
H 23.3198 99.5631 -76.0508
H 22.9972 97.8432 -75.7489
H 24.2024 98.7059 -74.7836
H 17.8954 100.701 -73.302
H 18.205 100.288 -74.9959
H 18.7919 101.827 -74.3369
C 21.3555 96.8806 -69.3828
C 22.695 97.597 -69.4023
C 23.7913 96.9913 -68.7741
H 23.6779 96.0223 -68.3017
C 25.0437 97.6105 -68.757
C 25.1866 98.8856 -69.3224
H 26.1465 99.3892 -69.2764
C 24.0911 99.533 -69.925
C 24.2833 100.956 -70.4387
C 22.8424 98.8681 -69.9956
O 21.748 99.4692 -70.5756
H 25.1123 101.007 -71.1541
H 24.5162 101.634 -69.6078
H 23.3934 101.356 -70.9376
H 21.4657 95.8079 -69.183
H 20.8361 96.9878 -70.3418
H 20.719 97.3081 -68.6015
C 28.4109 98.3074 -67.0078
C 28.4593 97.3971 -68.223
C 29.7094 97.1666 -68.8105
H 30.5932 97.6346 -68.3969
C 29.8512 96.3002 -69.8999
C 28.7049 95.6798 -70.4228
H 28.7978 94.9988 -71.2663
C 27.4372 95.901 -69.8576
C 26.2431 95.1407 -70.4332
C 27.3097 96.7736 -68.7494
O 26.0918 96.9675 -68.1467
H 25.4768 95.8265 -70.8103
H 25.7844 94.5025 -69.6706
H 26.5357 94.4907 -71.2672
H 28.5922 97.7373 -66.0883
H 27.4479 98.8204 -66.9007
H 29.1854 99.0778 -67.0781
C 31.1328 96.8744 -73.1822
C 31.3744 95.4515 -72.7204
C 31.4983 94.4455 -73.6886
H 31.4112 94.692 -74.7405
C 31.6313 93.1074 -73.3045
C 31.7285 92.7951 -71.9385
H 31.8394 91.7598 -71.6352
C 31.6044 93.7855 -70.9548
C 31.6467 93.3882 -69.4817
C 31.3868 95.1198 -71.3524
O 31.1118 96.0812 -70.4071
H 32.5056 93.8458 -68.9768
H 31.7313 92.3012 -69.3589
H 30.7393 93.7042 -68.953
H 31.5432 97.0559 -74.1827
H 31.5998 97.591 -72.4983
H 30.0571 97.08 -73.207
C 32.8095 89.5885 -73.8206
C 31.3169 89.7924 -73.6418
C 30.5666 88.78 -73.0356
H 31.0479 87.8599 -72.7221
C 29.2149 88.9787 -72.712
C 28.5875 90.1692 -73.0918
H 27.5462 90.3278 -72.8279
C 29.3233 91.2036 -73.6938
C 28.6287 92.533 -73.9651
C 30.7065 91.0284 -73.9324
O 31.4971 92.1115 -74.2398
H 27.5432 92.4106 -74.0456
H 28.9828 92.9876 -74.8998
H 28.8196 93.2423 -73.1488
H 33.1618 89.9983 -74.7748
H 33.0771 88.5271 -73.7986
H 33.3526 90.0915 -73.0139
C 29.4371 89.9179 -69.703
C 29.7821 88.4395 -69.7861
C 30.6468 87.9203 -68.8168
H 31.0367 88.5817 -68.0508
C 31.024 86.5721 -68.8278
C 30.4766 85.7231 -69.8018
H 30.7518 84.6725 -69.8032
C 29.5895 86.2156 -70.7812
C 29.0134 85.2744 -71.8352
C 29.2724 87.5903 -70.7953
O 28.5743 88.113 -71.8611
H 27.9482 85.4764 -72.0063
H 29.098 84.2216 -71.5382
H 29.5318 85.3924 -72.7939
H 29.8026 90.3778 -68.7761
H 28.3521 90.0648 -69.7353
H 29.8816 90.4736 -70.5349
C 29.8671 84.9827 -66.1457
C 30.8089 86.0924 -65.7225
C 30.6209 86.6989 -64.4773
H 29.815 86.3729 -63.8305
C 31.3933 87.8007 -64.0944
C 32.4634 88.2 -64.9134
H 33.0948 89.0242 -64.6002
C 32.7079 87.5603 -66.1456
C 33.8869 87.9803 -67.0182
C 31.8276 86.5467 -66.5816
O 31.8806 86.078 -67.8723
H 33.5704 88.2018 -68.0451
H 34.6257 87.1702 -67.0714
H 34.3989 88.8677 -66.6276
H 29.3804 84.5069 -65.2851
H 30.4111 84.204 -66.6932
H 29.0908 85.3877 -66.8048
C 32.4209 90.5256 -61.4271
C 31.2703 90.8214 -62.3691
C 30.8756 92.1529 -62.5657
H 31.4477 92.9627 -62.1305
C 29.7502 92.4599 -63.3353
C 28.9682 91.4049 -63.8294
H 28.0577 91.6192 -64.3785
C 29.3575 90.0669 -63.6623
C 28.4077 88.9766 -64.1438
C 30.5703 89.7707 -62.9969
O 31.0657 88.4835 -62.9433
H 28.7245 88.5475 -65.1023
H 27.3918 89.3691 -64.2787
H 28.3374 88.1659 -63.4067
H 32.7818 91.4244 -60.9094
H 33.2623 90.0674 -61.9591
H 32.0866 89.8221 -60.654
C 27.9364 94.6474 -61.2134
C 27.3689 94.5924 -62.6232
C 26.0154 94.9079 -62.7972
H 25.3903 95.1595 -61.9447
C 25.4378 94.8864 -64.0762
C 26.2381 94.6095 -65.1927
H 25.7871 94.6069 -66.1821
C 27.5907 94.2672 -65.0363
C 28.4033 93.9378 -66.2816
C 28.1435 94.2147 -63.7403
O 29.431 93.7776 -63.5481
H 27.8046 93.3752 -67.0071
H 29.2923 93.3354 -66.0597
H 28.741 94.8579 -66.7712
H 29.0291 94.5562 -61.184
H 27.5216 93.8447 -60.5965
H 27.6835 95.606 -60.7504
C 24.5447 92.0539 -64.0289
C 23.3032 92.7995 -63.55
C 22.2766 92.0146 -62.9968
H 22.4028 90.9405 -62.9373
C 21.0929 92.5828 -62.5104
C 20.9312 93.9746 -62.5957
H 20.0166 94.4316 -62.2232
C 21.9342 94.7846 -63.1726
C 21.7028 96.2927 -63.2443
C 23.1336 94.204 -63.6424
O 24.0867 95.0273 -64.2288
H 20.6359 96.5415 -63.3
H 22.1774 96.7374 -64.1278
H 22.1137 96.7895 -62.3583
H 24.3923 90.9692 -64.0602
H 25.3956 92.2395 -63.3623
H 24.835 92.3667 -65.0379
C 20.0735 92.389 -59.1528
C 18.8353 92.4064 -60.0283
C 17.5869 92.7139 -59.4518
H 17.5232 92.9766 -58.401
C 16.4231 92.7381 -60.2344
C 16.527 92.4289 -61.5965
H 15.6325 92.4618 -62.2098
C 17.7558 92.1054 -62.1979
C 17.7901 91.755 -63.6866
C 18.932 92.1144 -61.4136
O 20.1351 91.7402 -61.9727
H 18.695 92.1321 -64.1768
H 16.9371 92.188 -64.2233
H 17.7561 90.6697 -63.8358
H 19.8812 92.8066 -58.1585
H 20.8808 92.9734 -59.6096
H 20.4269 91.3612 -59.0303
C 14.0404 90.5724 -59.3481
C 13.8218 91.7524 -58.4297
C 12.8481 91.6286 -57.4249
H 12.2792 90.7121 -57.3209
C 12.5621 92.7 -56.5767
C 13.3143 93.8782 -56.6898
H 13.1015 94.7109 -56.0265
C 14.2829 94.03 -57.7061
C 15.0277 95.3568 -57.8466
C 14.5203 92.9677 -58.6036
O 15.211 93.2148 -59.7804
H 15.1615 95.8488 -56.8756
H 14.477 96.0475 -58.4975
H 16.0298 95.2102 -58.2758
H 13.3228 89.7598 -59.1668
H 15.0545 90.1798 -59.1976
H 13.9388 90.8877 -60.3931
C 10.3047 94.8151 -57.2363
C 10.2761 94.6413 -55.7243
C 9.67272 95.6602 -54.9986
H 9.28446 96.5144 -55.5204
C 9.61862 95.6356 -53.6019
C 10.0837 94.491 -52.9307
H 10.0138 94.4419 -51.848
C 10.6783 93.428 -53.6401
C 11.1534 92.1829 -52.893
C 10.8379 93.5409 -55.0376
O 11.5186 92.5476 -55.6946
H 10.8265 91.2779 -53.4166
H 10.7402 92.1379 -51.8801
H 12.2442 92.1413 -52.8212
H 11.1993 95.3803 -57.5345
H 9.42875 95.3819 -57.5738
H 10.2971 93.8517 -57.7572
C 8.34905 98.9501 -54.7525
C 9.45806 99.0136 -53.7053
C 10.1276 100.236 -53.5647
H 9.87086 101.076 -54.207
C 11.1023 100.418 -52.5845
C 11.415 99.3305 -51.751
H 12.1356 99.4344 -50.9508
C 10.8108 98.0776 -51.9055
C 11.2895 96.9249 -51.0136
C 9.80074 97.9137 -52.8745
O 9.11396 96.7199 -52.9275
H 11.7214 96.1137 -51.6195
H 10.4699 96.5004 -50.4176
H 12.0756 97.2147 -50.2958
H 8.6887 98.5186 -55.7023
H 7.9737 99.947 -55.0074
H 7.49254 98.375 -54.387
C 14.3898 100.938 -51.4582
C 13.2756 101.548 -50.6237
C 13.3416 101.371 -49.2422
H 14.2134 100.873 -48.8312
C 12.2568 101.731 -48.4173
C 11.1897 102.44 -48.9675
H 10.371 102.774 -48.3345
C 11.1104 102.643 -50.3507
C 9.88575 103.338 -50.9169
C 12.0853 102.054 -51.1847
O 11.7064 101.652 -52.437
H 10.0688 103.734 -51.9215
H 9.59474 104.183 -50.2844
H 9.05832 102.622 -50.9524
H 15.1809 101.658 -51.6776
H 14.023 100.547 -52.403
H 14.8423 100.092 -50.9366
C 11.3931 98.5057 -47.0549
C 12.7735 99.0369 -46.6989
C 13.7789 98.1065 -46.3876
H 13.5322 97.0502 -46.3621
C 15.0825 98.5261 -46.0913
C 15.3629 99.9063 -46.1494
H 16.3637 100.273 -45.9723
C 14.3507 100.849 -46.3113
C 14.6865 102.326 -46.1682
C 13.0515 100.416 -46.6314
O 12.1592 101.339 -47.0992
H 15.1416 102.717 -47.0848
H 15.3917 102.494 -45.3484
H 13.8022 102.933 -45.9407
H 11.1635 97.6003 -46.4873
H 11.3293 98.2547 -48.1166
H 10.5973 99.2265 -46.8382
C 18.6348 96.978 -46.8434
C 18.4192 97.919 -45.6749
C 19.5321 98.6287 -45.2065
H 20.4749 98.5687 -45.7371
C 19.4174 99.5001 -44.1025
C 18.2047 99.5302 -43.3942
H 18.1296 100.147 -42.4993
C 17.0834 98.8039 -43.8325
C 15.7878 98.8403 -43.0163
C 17.1752 98.0539 -45.0317
O 16.0285 97.6264 -45.6567
H 15.4204 97.8259 -42.843
H 14.9813 99.3847 -43.5231
H 15.9128 99.2981 -42.0274
H 19.1861 96.0894 -46.5107
H 19.2198 97.4598 -47.6281
H 17.6939 96.6566 -47.2946
C 22.073 98.4234 -42.4683
C 22.6031 99.2914 -43.5817
C 23.9562 99.2149 -43.9497
H 24.5939 98.5092 -43.4414
C 24.4878 100.091 -44.9003
C 23.6249 101.072 -45.4417
H 24.0197 101.83 -46.1025
C 22.2638 101.153 -45.0841
C 21.4051 102.293 -45.6081
C 21.7443 100.225 -44.1654
O 20.4482 100.318 -43.708
H 20.4581 102.39 -45.0637
H 21.162 102.164 -46.6734
H 21.9274 103.25 -45.4796
H 22.8396 97.7736 -42.0323
H 21.2565 97.7909 -42.8416
H 21.6616 99.0507 -41.6683
C 26.337 100.026 -48.061
C 26.4379 101.248 -47.1647
C 26.3353 102.507 -47.7628
H 26.2177 102.582 -48.8407
C 26.1757 103.646 -46.9637
C 26.3978 103.554 -45.573
H 26.3319 104.446 -44.9611
C 26.591 102.3 -44.9701
C 26.7909 102.171 -43.465
C 26.4328 101.149 -45.7609
O 25.8399 100.05 -45.184
H 25.862 101.89 -42.9567
H 27.1639 103.095 -43.0098
H 27.5311 101.393 -43.2364
H 25.3248 99.9227 -48.469
H 26.5947 99.1156 -47.512
H 27.0394 100.122 -48.8931
C 27.6081 106.294 -49.0085
C 26.2898 105.823 -49.6076
C 25.9502 106.2 -50.9275
H 26.6186 106.813 -51.5196
C 24.7513 105.751 -51.4963
C 23.9106 104.918 -50.7513
H 22.9912 104.549 -51.2061
C 24.2157 104.547 -49.4326
C 23.1912 103.651 -48.7475
C 25.4111 105.024 -48.8377
O 25.7103 104.815 -47.5068
H 23.6412 102.911 -48.0799
H 22.6137 103.082 -49.4966
H 22.4717 104.246 -48.1804
H 28.2202 105.457 -48.645
H 27.4276 106.949 -48.1494
H 28.2186 106.839 -49.7345
C 24.4585 109.05 -52.5718
C 24.7917 108.222 -53.8063
C 25.0006 108.913 -55.0206
H 24.9032 109.994 -55.0514
C 25.2872 108.226 -56.2137
C 25.5383 106.848 -56.1121
H 25.8675 106.302 -56.9745
C 25.3286 106.127 -54.9236
C 25.5112 104.611 -54.9259
C 24.8873 106.81 -53.7695
O 24.3005 106.075 -52.7576
H 25.9198 104.262 -53.9642
H 26.215 104.27 -55.7018
H 24.559 104.092 -55.0991
H 24.2686 108.448 -51.6774
H 23.5694 109.659 -52.7397
H 25.2796 109.733 -52.3318
C 22.9406 109.079 -59.3186
C 24.1223 108.135 -59.4132
C 24.0029 107.113 -60.3652
H 23.0756 106.98 -60.8885
C 25.0594 106.221 -60.589
C 26.3149 106.533 -60.0381
H 27.1824 105.929 -60.294
C 26.4601 107.576 -59.1064
C 27.8432 107.927 -58.5751
C 25.3049 108.257 -58.6524
O 25.3216 108.914 -57.4251
H 28.1181 107.294 -57.7306
H 27.9005 108.974 -58.2476
H 28.6002 107.794 -59.3579
H 22.741 109.5 -60.3126
H 23.1223 109.913 -58.6362
H 22.0498 108.541 -58.9904
C 24.3268 104.358 -58.4092
C 24.1003 103.473 -59.6144
C 23.6769 102.166 -59.3157
H 23.547 101.887 -58.2782
C 23.421 101.216 -60.302
C 23.6303 101.599 -61.6426
H 23.4378 100.879 -62.4316
C 24.0632 102.899 -61.977
C 24.2515 103.255 -63.4515
C 24.3301 103.857 -60.9604
O 24.8672 105.09 -61.35
H 25.2172 103.737 -63.6386
H 23.4656 103.939 -63.7857
H 24.2138 102.363 -64.0855
H 25.3946 104.574 -58.2944
H 23.9923 103.863 -57.4954
H 23.756 105.287 -58.4876
C 24.372 98.1462 -58.1397
C 23.0807 98.8876 -57.8016
C 22.55 98.7983 -56.4918
H 23.0844 98.245 -55.7291
C 21.397 99.5166 -56.1304
C 20.6824 100.189 -57.1295
H 19.7652 100.725 -56.8889
C 21.1582 100.223 -58.4462
C 20.2992 100.885 -59.5083
C 22.4066 99.6536 -58.7675
O 22.981 99.9429 -59.9887
H 19.2414 100.912 -59.2036
H 20.3475 100.322 -60.4524
H 20.6257 101.913 -59.7039
H 25.2653 98.6968 -57.8149
H 24.4621 97.9726 -59.2175
H 24.3859 97.1632 -57.6564
C 23.2903 101.114 -53.7853
C 21.9093 101.721 -53.9862
C 21.7323 103.089 -53.7276
H 22.5847 103.714 -53.4582
C 20.4565 103.658 -53.767
C 19.3479 102.845 -53.9925
H 18.3569 103.275 -53.9416
C 19.5072 101.471 -54.2533
C 18.2642 100.594 -54.3581
C 20.8019 100.92 -54.3238
O 21.0114 99.6463 -54.8123
H 18.0917 100.087 -53.4012
H 18.3441 99.8175 -55.1264
H 17.3633 101.176 -54.5777
H 23.615 100.522 -54.6408
H 23.2712 100.458 -52.9113
H 24.0446 101.875 -53.5944
