14

 C   -1.357847067639    0.108892225321   -1.845952275507
 C    0.096395962899    0.351252320851   -1.495643601352
 H   -2.010780680814    0.421206748165   -1.031143148216
 H   -1.532155090148   -0.948338271262   -2.055139968901
 H   -1.621315219065    0.684016371178   -2.736730325594
 O    0.516605442983   -0.456947563661   -0.397245823803
 H    0.274521897814    1.397305812731   -1.258634824285
 H    0.748648243886    0.057049821682   -2.314976181315
 C    0.272962532065   -0.022705742755    0.833068714516
 C    0.792418132942   -0.984657820979    1.863171915208
 H    0.318720189191   -1.956746556670    1.723632502527
 H    0.582520874250   -0.602555964026    2.857952199215
 H    1.865879497808   -1.118436020618    1.727399982152
 O   -0.282933870717    0.997700477271    1.075965521214
