39

 C    6.857985968909   -0.153027086760   -0.895186727834
 C    5.601898836488   -0.517378856184   -0.113910697119
 H    5.554113876287   -1.606405758460   -0.026052382910
 H    5.692413981600   -0.129632424253    0.908127754549
 C    4.317673183091    0.017162491719   -0.744392482604
 H    4.381919154179    1.107464567989   -0.836461299793
 H    4.228681534263   -0.369693483156   -1.766034060130
 C    3.058682962026   -0.346921619624    0.041368206164
 H    2.993053370327   -1.436854108029    0.131992562723
 H    3.147016673767    0.038270557059    1.063518868444
 C    1.772312846548    0.185423755431   -0.588262147793
 H    1.839542204667    1.275407742861   -0.681256671086
 H    1.683146201818   -0.201756620196   -1.609641679831
 C    0.513588094138   -0.176091994721    0.198940641982
 H    0.447043268436   -1.265784521870    0.293401208936
 H    0.601713377640    0.212439006683    1.219803041607
 C   -0.773092019043    0.354024649261   -0.432103995621
 H   -0.706410964653    1.443824187236   -0.527330103412
 H   -0.861869667809   -0.035427817382   -1.452677324119
 C   -2.031245312905   -0.006783352243    0.356142190465
 H   -2.097693306487   -1.096008221940    0.453785780142
 H   -1.944802332095    0.384895630336    1.375709765694
 C   -3.318198201559    0.520061627714   -0.276793276582
 H   -3.253458063582    1.610063059351   -0.372956324999
 H   -3.404862783689    0.129499470207   -1.297312868145
 C   -4.571855670329    0.153724438675    0.515414666665
 H   -4.645236324274   -0.932189235167    0.614658018738
 H   -4.495288335397    0.542617132534    1.533905384208
 C   -5.851250257889    0.681299424921   -0.122348207497
 H   -5.825135772878    1.772860372300   -0.226230675410
 H   -5.975953159718    0.299150028958   -1.142811936023
 C   -7.110343220888    0.341788110592    0.630868419901
 N    8.039550043840   -0.727511958605   -0.269097544171
 H    6.912232344320    0.940515154562   -1.003930054159
 H    6.783192608566   -0.562048601351   -1.906675769721
 H    8.187810506323   -0.309486656984    0.634964962149
 H    8.859405639719   -0.511770144305   -0.810267651699
 O   -7.151537195718   -0.280702361642    1.639953242094
 H   -8.041609956797    0.722063406343    0.171360347139
