52

 N   -7.515999609778   -0.790955982618   -0.362633854322
 C   -6.828946064476    0.190763537894   -1.058674951892
 C   -5.433436914220    0.132363708109   -0.524139548272
 C   -6.735162349954   -1.474617727103    0.553662372264
 C   -5.377411679143   -0.856420306787    0.434086152361
 H   -8.485545462642   -0.985926380954   -0.507761270567
 O   -7.275535844769    0.903910242689   -1.890817504419
 O   -7.088881375841   -2.353252509206    1.263275565864
 C   -4.334100601780    0.894987654122   -0.862623545741
 C   -4.203516789399   -1.129978270156    1.103813808921
 C   -3.087139309083   -0.377203200996    0.765659241000
 C   -3.129874748607    0.626616782994   -0.211625789940
 H   -4.439176468146    1.663824576299   -1.608452957895
 H   -4.151106713114   -1.898283647736    1.860904237944
 H   -2.158787951006   -0.578665518567    1.277102826269
 C   -1.836532829730    1.439253890278   -0.469710336551
 C   -1.892564882555    2.246678078615   -1.794065504902
 F   -2.237451057060    1.467143403616   -2.801439886645
 F   -0.723241800307    2.768188603683   -2.086469275876
 F   -2.760697327948    3.237796769781   -1.744879744452
 C   -1.718393834377    2.450485386500    0.701740376297
 F   -2.847780777168    3.090170959530    0.897708589640
 F   -0.785877563688    3.359434444245    0.492223837829
 F   -1.417998472008    1.828354532045    1.826332650529
 C   -0.600889690885    0.511822214241   -0.582518761933
 C    0.622938484162    0.805922608765    0.018112276998
 C    1.667210655597   -0.073608959602   -0.187023156065
 C   -0.716493357900   -0.637282634796   -1.377967233684
 C    0.345659528785   -1.506993942561   -1.582798036484
 C    1.540181647862   -1.199762744639   -0.965236289291
 C    2.850572788168   -1.912425262262   -0.981913560575
 N    3.706809450889   -1.145530869661   -0.185129967947
 C    3.061585227082   -0.018477161274    0.336845878231
 C    5.076624995024   -1.466541591565    0.052565277816
 C    5.573896774876   -1.456811095533    1.348405909457
 C    6.911190346028   -1.753406015614    1.583854857265
 C    5.910822759278   -1.781626579980   -1.009320527386
 C    7.244114105647   -2.084792049629   -0.771924806960
 C    7.749217552915   -2.058786078165    0.515560378183
 C    7.517749129035   -1.728998993111    2.957331104274
 H    0.238060681357   -2.386261707749   -2.200317620744
 H   -1.660504150337   -0.860430969490   -1.850046098920
 H    0.783998856439    1.679584383225    0.625623571235
 O    3.541119245259    0.789097935541    1.056190048164
 O    3.129522511195   -2.913089196916   -1.547605750892
 H    7.890481248813   -2.331354964718   -1.602311124674
 H    4.913637867185   -1.168592517136    2.152173262979
 H    5.521079553390   -1.796832049662   -2.015260044217
 H    8.788594443086   -2.272199229787    0.711913787658
 O    8.682912418395   -1.649472081118    3.133227411649
 O    6.683984325416   -1.805756539418    3.993760536086
 H    5.809679021254   -2.044742419905    3.727756467988
