68

 N   -9.610652445846    4.011220087283   -2.400591935612
 C   -8.525218870725    3.887568161047   -3.254953182034
 C   -7.395734340638    3.450748462266   -2.378040369888
 C   -9.321951326669    3.707598083684   -1.082162819166
 C   -7.870278053957    3.341822356792   -1.082058065467
 H  -10.517759513334    4.295384226882   -2.709538824821
 O   -8.527469302357    4.090895885099   -4.420708714533
 O  -10.077472441501    3.737441644193   -0.170955107239
 C   -6.081194856571    3.188632420308   -2.691331391320
 C   -7.052661297168    2.960424782282   -0.041362882702
 C   -5.726084697679    2.668737955662   -0.348903440745
 C   -5.240446751234    2.773643039191   -1.654339636479
 H   -5.703473267797    3.296390613503   -3.696510570812
 H   -7.425161516255    2.892181278298    0.970050470277
 H   -5.057571507294    2.373360414531    0.446769713907
 C   -3.790563422641    2.541306269965   -1.988427788865
 C   -2.981545320945    1.521643482425   -1.232245787375
 C   -1.611784567968    1.760955310843   -1.093496883436
 C   -0.862814851645    0.803639373535   -0.446089110397
 C   -3.544615979821    0.334017791766   -0.756997115166
 C   -2.769993908867   -0.635004875004   -0.125656845108
 C   -1.426921759938   -0.365386522471    0.024022554045
 C   -0.348876405360   -1.183034522570    0.657621755240
 N    0.820826979457   -0.436942750154    0.520992664013
 C    0.596373305442    0.777407428930   -0.134613337922
 C    2.099666210561   -0.864197379147    0.993906782310
 C    3.176388614428   -0.930724206460    0.131075911202
 C    4.420814759627   -1.339126410718    0.597044645109
 C    2.268892753888   -1.216453007513    2.325999800369
 C    3.507397698356   -1.633915537300    2.775535656273
 C    4.615747543912   -1.702544929467    1.925092374921
 H    3.056778270353   -0.655983697960   -0.906446219964
 H    5.239066375332   -1.381083216416   -0.104088328818
 H   -3.200917514889   -1.558964986251    0.230509710513
 H   -4.600138984392    0.150580231279   -0.896872118416
 H   -1.167160438417    2.664119748742   -1.482290780537
 O    1.410307072560    1.598344152267   -0.384762352620
 O   -0.453456689062   -2.241186869813    1.177781026235
 O   -3.278869563186    3.172148759368   -2.860670091190
 H    1.431935475494   -1.176230861516    3.007257236323
 H    3.604231191919   -1.910439529065    3.815946381152
 C    5.979247772540   -2.146686474700    2.492726593666
 C    6.413716221201   -1.148314373479    3.583963264382
 H    6.435041882056   -0.126935177931    3.200031789901
 H    7.410821103118   -1.398417539478    3.950645503918
 H    5.727557931214   -1.165679268146    4.432348187885
 C    5.926094414388   -3.598492308902    3.057952605554
 C    6.439039495468   -4.563563524941    1.958447735445
 H    4.936561191993   -3.876831850583    3.419147323159
 H    6.605854097515   -3.651742497381    3.911013612680
 C    7.308054352958   -3.628832625467    1.127162776374
 C    5.287439803623   -5.136234419201    1.112760762266
 C    7.237102915432   -5.720211154047    2.574023588452
 C    7.056757621229   -2.295316862107    1.421167449633
 H    8.100320275134   -5.353448519135    3.133070895020
 H    7.599470281444   -6.408831874440    1.807145407887
 H    6.607572285956   -6.295152379047    3.258610820854
 C    8.259649559616   -3.968031190701    0.172205286316
 C    7.771631546565   -1.289966710952    0.779777948379
 C    8.726086579028   -1.628893946928   -0.168855757406
 C    8.966137741139   -2.964405189575   -0.474678636396
 H    7.589806406672   -0.248117201480    1.008908835497
 H    4.669746558716   -4.348098010044    0.682708121659
 H    4.643603226587   -5.773905747160    1.724648523310
 H    5.677047882145   -5.742750806480    0.291430825982
 H    8.460621948125   -5.004651369143   -0.064800664910
 H    9.287167558596   -0.851404731610   -0.670430420863
 H    9.712732616394   -3.221503849685   -1.214749062870
